60

H       1.113548918699854      2.117229913117121      4.882223178088468
H       6.233796408598115      2.634461412202581      6.888522050758886
H       7.499024713423823      5.735638703067792      4.368484335662065
H       0.355956846390207      5.986887490517053      6.299080332233594
H       6.036112185678723      4.114576985448497      5.217971969279585
H       6.280678079940728      5.230226956285532      6.546366861864675
H       0.534055810655006      4.857179509041836     10.060414811537575
H       0.131444957152685      5.685815312019114      8.680203652460186
H       0.470744866354149      4.208700371148427      1.651621922798146
H       1.276470863546044      4.400391040480508      8.642593750160154
H       6.465111402717475      4.076434817462562      8.752197602223518
H      -0.024747764074489      1.507664430069819      6.978742995837527
H       1.111653816638150      2.804805101427561      7.289606360761424
H       7.342445557144631      3.998605082706169      2.289631038720246
H       7.550373273364964      2.448288923534271      4.256529048566384
H       1.783747885164043      4.366257718138665      5.595528507257078
H       2.171699034145381      4.109645197237003      3.339761660955829
H      -0.526359216901475      2.869994139487005      9.389745393844294
H       1.198149395337011      5.599065564728026      3.365970060554917
H       0.282435076597506      2.865895947293607      2.627060555999002
C       0.165295227061959      2.568610587025686      6.773919956904463
C       7.361452935927402      3.615088876289875      8.317102350306907
C       1.184757993806795      4.523310823811786      3.590258335327799
C      -0.182877912660142      5.271146483366920      5.659176823306218
C       6.782600875899925      4.462412138287039      5.946886888453086
C       0.371263302315111      2.814982410164336      5.287701190373804
C       7.137597231338069      3.264228098235530      6.853159292201080
C       0.827447898876297      4.257313104140191      5.053979994216507
N       0.224827145511379      3.901651878415225      2.615053019745383
N       0.367079351149180      4.732179087795472      9.035121381425514
H       3.665929171916204      1.859417874439044      4.662072680962547
H       5.191734406059014      7.103193363751084      6.846062888913312
H       5.281936327266142      0.188641627911248      8.661453266370044
H       4.361210962881160      0.526954176476240     10.002033845686009
H       5.839099468701121      8.033328096140934      2.593058256089376
H       2.091903847823651      0.210800860497452      5.424596873663460
H       2.410468514791095      1.307059926867455      6.754518711847443
H       4.686715944386163      1.678719226592615      6.063180306716945
H       2.845086657706755      7.953678985811931      2.505927967421231
H       3.949432642871766      6.700620149822559      2.217498813659283
H       3.858904099397097      8.013101779919740      1.190087920051118
H       4.981889636583592      1.312301727361367      2.827269186150046
H       5.966938092666670      0.201353271939082      4.977360473256978
H       4.153077173350809      1.479391920351669      8.655064153259001
H       3.426542509011578      6.528543601205520      4.429634958666036
H       5.130111329708051      6.103992820577220      4.495235904280610
H       4.191972379225903      5.661199124820654      6.720648656479661
H       2.175125410312166      6.793235512555864      6.814885265410126
H       2.302970289170626      0.002406136241614      8.897739537706446
H       3.271686828375933      6.807896076162367      8.949312741646137
C       4.049548149233622      1.108347054162105      5.370738289104578
C       3.095695508380310      7.745579997549999      8.403103489969329
C       5.035000996047825      0.250441711137065      3.105089000615818
C       3.038442642694196      7.475069491171229      6.903203239786496
C       4.265530341403919      6.707099274262939      6.397153837676576
C       4.391800698432416      6.815327756173520      4.883908815105114
C       4.930664019334162      0.061629961588333      4.625223277650589
C       2.863650298284788      0.514468586530946      6.146965001063277
N       4.333488102364314      0.497161868921962      8.967456959776795
N       3.817515650045163      7.726812524543218      2.187942821175608
