60

H       4.738588395892920      1.521471707484966      4.613148637055287
H       6.692257663347426      7.858185533708823      3.873704762446903
H      -0.259859297247168      1.225078072143530     12.066074910778603
H       5.706370466088543      6.512677815943550      3.962455173807225
H       3.953634454527930      7.683668453055342      5.000747296570372
H       6.492834802899696      0.868044839987306      6.171130332023313
H       6.017355952510528      6.881779934494935      6.367982443465295
H       4.635927419372181      2.661045080968842      6.879063886861471
H       2.780509784675251      3.103350412645646      8.484208628127762
H       1.328806761042308      2.424841531720917     10.101058718884088
H       0.485458776130481      0.970360380617495      9.599082616378242
H       1.569802526050986      7.353914723624965     11.585202546542417
H       2.686028025687931      0.928850803647762     11.734518664708544
H       4.505163286484967      6.176272768864638      7.979518033705927
H       2.662616440801112      6.622827586415528      9.592162570063145
H       5.288431241944946      7.798258010786506      2.965274458110861
H       0.896960750550296      2.414595225244456     12.336707184638895
H       0.862990374975548      1.037305072136388     13.293285592349715
C       1.668664498144095      0.739620351985373     11.381199147185106
C       1.438042608453233      1.339809517570835     10.003065959308453
C       2.564503075811658      1.050213259310048      9.058965177562294
C       3.159578622294008      2.091968363103777      8.346264356106653
C       4.640859409757212      0.537038227146426      7.244959552533943
C       5.684138398853271      7.923040285615745      6.303058981479047
C       4.859662565397347      0.457024823605454      4.824973980891887
C       4.147374356387275      7.191496837850449      8.142762314725937
C       3.123655510869819      7.443212857704882      9.045707115187369
C       4.191858668652401      1.844051018605469      7.448419885124195
N       0.734589016261817      1.393966852148487     12.337658229927957
N       5.701545732809310      7.543156377704310      3.866565710916267
H       6.790960739451786      2.764791371054260      8.591412235453021
H       0.291352216107406      2.719005089020734      7.186446719289253
H       0.862553461287723      6.950025465833056      7.634460656318597
H       2.816262399292361      4.906354493143003      6.773815798297007
H       1.784186628804008      5.805496417306126      5.697746514990095
H       2.823930297695081      3.725786501102998      4.721631744909507
H       1.860606658972481      2.725067772353926      5.811645140428685
H      -0.582074524473300      6.914078281487032      9.664661748370516
H       6.869957251445855      3.937992906463856     10.910720768698772
H       6.622906406005264      5.673247018504979     10.960823112297744
H       4.603300360277611      3.877431233699173      9.541354875180728
H      -0.147750605036856      3.928029763285185      4.794406015811992
H       0.662472292693843      2.830790610155099      3.861033772724823
H       0.920852765571660      4.464078417796035      3.631223403030500
H       4.332461884142024      5.457874408494481     10.325823214031058
H       4.914071859309834      4.288971708069889     12.449002748150280
H       3.486221038209143      3.837394919902831     11.739675635522216
H       4.869157574036871      2.844801414641974     11.583177926399472
C       1.842916378159047      4.866402253981906      6.262685336366737
C       0.113880141324108      3.654276543098678      7.714763382092627
C       1.905457740484453      3.693566878310918      5.309976635619471
C       0.754749571962978      4.830495680362012      7.311710459684706
C       0.434341285582382      6.014660398491509      7.986111239090803
C      -0.376880747638489      5.997151479929261      9.115181181581397
C       7.048554764301240      4.857164751223543      9.022699076517180
C       6.400531129742300      4.772944448941622     10.376484578444101
C       4.902348597625338      4.528188295840096     10.366641554943874
C      -0.719812216869537      3.644543479080721      8.830030314461839
N       4.520010103701800      3.821807833097410     11.622247828600520
N       0.768902799890641      3.734249335814824      4.341617360206204
