46

H       7.074480989272838      5.252873220274964      6.766428136327200
H       0.762582836721424      5.965017759491774      7.693477274797456
H       1.766887904793399      4.631347179496125      7.478507060487129
H       8.078975809458152      2.896910608584895      2.963444990098588
H       7.427898195996460      3.548219264990462      7.091478833037832
H       0.739511359634245      6.501842808750398      4.783079921050771
H       1.758878086394724      5.453970716320492      3.757732000629731
H       2.192455127927353      5.688791071916590      5.441232587426083
H       2.180361957771366      3.184656842812533      5.887707732904499
H       1.846350585342116      2.948349972302312      4.183096151586946
H       0.773174234079963      2.196417613926324      5.403562128024135
H       6.809346952445694      3.854160381175336      2.476421526044672
H       0.289251761963318      4.539124972961771      2.307678522245556
H       6.790096235296612      5.167186844941789      4.394569598318869
H       0.459657196137407      4.522129145790799      8.530999410820698
H       6.647440356284515      3.452963298343538      4.782023906389863
C       1.333756233449729      5.578680447481457      4.764264209282238
C       0.497471288532535      4.353349151588464      5.151161730520946
C       7.344042519981050      4.224591976666255      4.439743744738156
C       7.874382238346695      4.501580227386974      6.779951663979603
C       1.363221047425632      3.089849229933323      5.157534466384069
N       0.773577286369707      4.920962943344055      7.621296237527626
N       7.688971539802366      3.869563794843083      3.029994326030305
H       2.814576825685893      7.552521336101968      4.190555092424450
H       4.761395384730531      2.261408407615763      5.494920973431306
H       4.342677518197479      8.227255519897644      2.370531461612388
H       4.059956569264825      1.550353779712683      2.849884848183408
H       2.596988839007501      0.946057770907315      4.643195482871725
H       4.780598315518799      6.847087222609307      7.804112401404448
H       4.470681921657360      8.311551643244231      8.602343926209668
H       5.782023454364801      8.176616028971715      7.558143414530434
H       3.370391646449683      0.914385286291275      6.946742357376340
H       3.062448597552480      7.512301667560285      6.594843187758025
H       2.801529836237923      0.591175099190199      2.340421406641984
H       5.858208394883376      1.496528449444714      4.303725454127554
H       6.168762750346446      1.293515774278953      6.016559167310421
H       6.237345332063150      7.101756767554360      5.543143100345012
H       5.801683031184468      7.294800141987378      3.854115055337882
H       4.792445748816555      6.259416174183931      4.901619393614501
C       5.361482852794922      1.368470035989242      5.273176316208324
C       4.507842181726457      0.097334185829514      5.276558471478166
C       5.378003711937096      7.187561377805546      4.863274011483665
C       3.851255133675529      8.275193589157693      6.602554536183995
C       3.321266854664032      0.198258082442956      4.304834631117560
N       4.788825290399078      7.888925678453668      7.704564583830937
N       3.675110415047957      0.574919280809662      2.902793179197339
