32

H       7.369866264598115      8.026253728456156     22.902406992272216
H       5.019166179038520      0.047676517022631     22.797661476342242
H       5.781577060770918      1.259274055760658     23.676695224957626
H       6.391139230677284      6.805143369034682     23.768555121601725
H       2.830388092952099      0.122211789533418      0.253378240197585
H       5.197026613903295      8.118644155509797      0.485468379198876
C       6.727566226322403      7.842364833196953     23.762652806791277
N       5.528704602973154      0.254435279384883     23.672613344774760
H       5.033007152386788      0.427535954910166     18.363185557247697
H       7.385210006861548      8.402480314783521     18.475207680555506
H       6.616535864635319      7.182861717561614     17.612546094392776
H       7.519482037404179      8.345750679055177     16.816300510146249
H       6.019001430555392      1.638004697990331     17.490002289717129
H       5.158737472499980      0.360572214892325     16.577259928463825
C       5.678581084763792      0.602093871781631     17.503380264012712
N       6.873815223647068      8.186448871843513     17.603612619441900
H       9.357064494671377      3.768736493330506     18.598601279068813
H       2.907235358695226      4.297198294895867     18.274125313898367
H       3.149962161625521      4.314398301605913     16.627413697088272
H       1.627375209843134      2.557715364409649     17.210228295372037
H       2.189999840274655      5.489016271231405     17.332075913963312
H       9.580689788805071      3.815166622095617     16.821838275938443
C      10.050689565258015      3.590154876445958     17.778225597044855
N       2.452159556736744      4.487173853587511     17.365603660361124
H       3.049854289841422      4.656427102069257     22.691169859100214
H       9.492258733309466      4.142511908548863     23.013571652301565
H      10.207248327292440      2.952840001025605     23.959673738675846
H       9.251474450948855      4.133602627334613     24.660737842017969
H       2.007662100521430      5.883379021809622     23.470830980492593
H       0.763181411916672      4.675041678956027      0.263347925964082
C       2.352078576322958      4.849343589080617     23.504806217772330
N       9.947724181315856      3.955263353871167     23.922298763163873
