52

H       7.576471718544446      0.969754447530599     10.925688278836363
H       7.324113272580592      6.686646380779052     11.909443200804109
H       8.697640751682931      7.638358004507839     11.687593712273094
H       7.703730564479060      7.912517310229170     12.980755852413690
H       6.271277529025912      1.075638545475209      8.576940209502810
H       6.114185730194484      0.543843026320050     11.834641735625079
H       5.654598058444289      7.123209741078431     10.312718966649230
H       7.131039782090788      7.415554022647285      9.394050875696234
H       4.886410889852885      1.015307127961759      9.669317998239661
H       5.458598524985393      7.474260830691164      7.410051080831179
H       4.073251952172669      7.415759871458586      8.501757140585962
H       1.650493213566898      0.850312637965517      5.386072869577036
H       2.641426011040271      0.560460094599810      4.094257924923841
H       3.029014090244809      1.792633015384156      5.155711527840106
H       4.227498788547328      7.931724720091627      5.248164762848423
H       3.215339136481147      1.076356543512961      7.680246572899904
H       2.762794262751592      7.518149351976575      6.158976877804068
H       4.691245838406956      1.362595989629965      6.758663743933611
C       4.777720335861694      8.096984896515265      8.005367929308354
C       5.567046325063678      0.393417071182264      9.072682859237041
C       6.332423994911769      7.914533400774767      9.962813050644005
C       6.904818806783099      0.147338419248253     11.190232164032109
C       3.438266273869829      8.335846696820500      5.889426822464022
C       4.012832979423480      0.573705737290963      7.112924417296728
N       2.644306243602342      0.837124387046675      5.086918371846974
N       7.703348726686348      7.643920259461370     11.985975526253890
H       8.464761585258993      5.315873171640136      8.810256016548605
H       7.613850388233597      3.196793052354082      7.946190303735415
H       1.266391595817562      5.573739200831424     10.051958298796430
H       1.893765318565756      3.185898462636067      8.254421985728749
H       9.277289893705731      3.226923892922894      9.928828821432393
H       2.930830483506339      5.983063452655893     11.657909873346943
H       2.745358220238296      5.300283759375309      9.132242935679079
H       4.306492313066210      5.041552695426813     11.415075891658191
H       3.317814025964770      4.739303122818860     12.706505293974981
H       1.729901374513044      3.659867517956231     11.523116434163956
H       3.193472138011664      3.249700608534505     10.608715950224600
H       7.158608453204834      5.233125683347014      6.451365179114338
H       1.080158533326237      5.270372723463392      7.134415909147927
H       9.091210632654693      2.918012351715894      7.025740812871300
H       8.621587448385519      4.817462598838810      5.538604352125759
H       6.047665706501776      3.433615397939003      5.660512828599058
H       7.040075568160248      3.717777826915074      4.367874478295470
H       7.423468878993693      2.488016822225616      5.433970202802836
C       2.520858786345059      4.067118468821136     10.886011090284677
C       1.945299363445191      4.789421862566294      9.688594460698797
C       1.187871478324277      3.859021803158444      8.759766044780687
C       9.170087822786801      4.640634431709810      8.306736596590055
C       8.411770329057173      3.704334284550301      7.383975819845366
C       7.832696423064366      4.414572187589385      6.181140040599823
N       7.041625797627979      3.444279616750555      5.361386401034306
N       3.313384049109811      5.026617475601813     11.716564761273832
