32

H      -0.520089512516521      5.167399833645169     17.861075160093268
H      -0.409291946755528      4.995768465742016     19.506625876952061
H       7.693957951305873      2.777223934794902     17.265701102231397
H       6.464929593431099      3.529712517092782     18.330348511886580
H       0.758282675110727      4.308758852813474     18.518908142789233
H      -0.758414586452626      2.618983810726240     19.365463757846985
C       7.516108029595645      3.261415929299185     18.225046888172258
N      -0.253682854455539      4.513056951520529     18.608467994470690
H      -0.766648013269485      2.426761763857192     25.578681988365567
H       0.689387128798769      4.197680499882579     24.812035184778384
H       6.486371582901181      3.145498951062293     24.537868601881907
H      -0.734436864393548      4.966181770344148     24.043954640765950
H      -0.834580363939720      2.561286090580053     23.924012521486734
H      -0.642288535492405      4.831097901457223     25.827444389793008
C      -0.387001501978615      4.359300005089167     24.878820167151641
N       7.514219756689192      3.031791962564744     24.485944432449688
H       3.444705826505470      0.923570279141009     25.428928364530073
H       3.400436308451931      0.723753597523539     23.778566712883674
H       4.932645741134652      7.995158235409130     24.512236011964518
H       2.132739171305090      0.159957168910070     24.724798480277379
H       3.524060852567498      7.185677830645294     23.760275220943772
H       3.593410305698116      7.389396367333334     25.537214870722934
C       3.857221008811436      7.827019401691709     24.574861730867973
N       3.159672344266423      0.279948343369835     24.678248336070965
H       3.770805936882526      6.727499238764763     17.575329171214410
H       3.835696936271467      6.913643145291902     19.222902752344151
H       2.102827146773305      8.311795987321114     18.308007643513857
H       5.006820800425769      7.625119830711315     18.255816068185034
H       3.409010015019110      0.415892416033020     19.290522546689044
H       3.335228293107206      0.239571292239630     17.510217610506963
C       3.144457859209903     -0.245541088970409     18.466567040036331
N       3.999319797361746      7.393705366171754     18.324750750608356
