32

H      -0.730585980815271      5.114636871882488     20.276851191464036
H       0.826617558685235      4.539125610308735     22.012216270819398
H       5.709363784191692      5.258818968041739     21.058023107397073
H      -0.745127154554113      6.338816310519976     21.420604767233289
H      -0.489559851584199      4.729846540216399     23.206612995435275
H      -0.567022368349064      3.416666472089439     21.990166521479509
C      -0.244960356976734      4.439954485622375     22.187528787753770
N       6.737875217189984      5.344600208587707     20.940555630201960
H       3.241088319133282      0.965782617840376     25.531150689819754
H       4.463732813234564      0.039704834875067      0.213014719805931
H       3.118442255740884      7.403339793164467     26.661513703768406
H       3.558830967928879      2.387437526299824     27.448889235518148
H       1.959823356832794      8.581481090230715     26.738875244756237
H       4.803691752428679      1.100732874563482     27.368534118042710
C       3.745880153975110      1.315660432230647     27.520769688606165
N       2.972027168558248      8.427803926357562     26.614681820821534
H       5.991455982414320      3.946849931979576     26.019212300694171
H       5.732704445850825      4.174203240357671     27.774616377386437
H       0.529689567619631      4.659744816902481     26.593209660375095
H      -0.435207648192554      5.850854446431575     27.272836985523544
H       0.390308901373428      4.757747374299397     28.237127264493946
H      -0.848565174510272      2.909356106353345     27.500754338021661
C       6.449259230298257      3.905163617504062     27.004526094456700
N      -0.129778842602947      4.869808567270709     27.356038405707274
H       2.628353430688954      2.670166117301477     21.036652357236690
H       2.281753078156370      2.034994621238586     22.671549179123446
H       4.150532899004493      0.882557807140926     21.483867975696022
H       2.912240561543173      7.682832629973373     22.129886678349017
H       3.030152934210972      8.130202142123068     20.534082117350152
H       1.255062858600122      1.550058101899044     21.291792832357118
C       2.263379383306223      1.818302779559323     21.604680207076338
N       3.157362123779000      8.461260737537255     21.498925381270475
