64

H       4.835296797580706      8.530578967166512      5.781611702636940
H       7.768197533591326      1.225195978531478      8.988401017841882
H       8.194776217416454      8.081352064977127     14.318063474083608
H       9.499006170484474      8.288975316611848     13.288131436231090
H       8.448633939732591      6.986772276080170     13.092743195092350
H       7.613134723335383      1.282968329223475     12.710724944167239
H       6.641263199369690      8.351387651809413     12.470256298956858
H       1.807716957069573      8.186458438343188      8.016242546661443
H       5.419920495164893      1.059340669758335      7.824100745623631
H       3.578931662819252      7.503838614924504      9.302801135204129
H       4.438322333824973      7.223873585814242      7.802665895020673
H       2.735539482332239      1.152476161554561      7.627549836537132
H       3.958398372906456      1.375173724556981      5.358895334873916
H       1.896236568600930      0.140627519152186      5.502091041258587
H       2.787000882160334      7.193023611902515      5.962397276257165
H       6.586902213647702      7.620469429953333      9.016835345458421
H       9.175059132760381      0.890128918798593     10.883801756717764
H       4.522794426182757      1.267666324395721      9.324486537656560
H       3.922768064124239      0.099326085374430      4.280228331075890
H       5.700165817752437      7.921291852594556     10.509183396818280
H       6.774471723465428      1.782124975298111     10.331042646065677
H       8.475942072203189      7.807092619101522     10.712193028501302
C       7.238530447149192      0.887832176774060      9.888076506106129
C       2.746739824415239      8.271675936672732      6.143284279896236
C       3.946137900450587      8.007596597833759      8.401076780625374
C       5.018924468379223      0.517881102844347      8.694087772292457
C       6.122194791183166      8.412059518377063      9.620966551351705
C       8.247669867669909      0.303550861545046     10.879149616912867
C       7.677883685486813      0.275545862714259     12.288113777185087
C       2.749895043172567      8.589694630931376      7.625944236604395
N       3.962343904518738      0.339960027951702      5.283510596188878
N       8.504787799635297      7.992568485200855     13.340309500453417
H       4.795039870686906      3.726025948218909     10.725597772281242
H       3.456689615836584      3.305173412063416      8.799429131169614
H       2.451174060607799      5.471378644889985      8.426851226348305
H       1.465351646175368      5.357128396786525      9.885317798334954
H       1.262187823942964      3.506447499595414      7.469134397091834
H       9.002213432272574      3.388220086867325      9.757792575697943
H       9.060692783956869      5.917527482800314      8.035964832065179
H       7.978059176105905      5.550507267989968      9.372805079321822
H       7.183574053024269      3.505275875350270      7.971766818241557
H       9.163675950714705      3.720208376846934      6.287895837716492
H       8.360704605323454      5.182323159298980      5.690804478957719
H       7.341670759793117      2.401135978416289      5.630327403441018
H       7.678704733719452      3.416063221924938      4.359539925482201
H       6.352809911062393      3.722138445928998      5.338794764575067
H       2.377206501430175      2.938232608158231     10.138994365484169
H       6.666720675794314      5.101748352254560      7.425196406632399
H       4.274588861244273      5.333707398934692     10.221325411327092
H       3.126459585605372      3.611360191843399     12.484605807656163
H       2.320800475715307      5.088229057086255     11.928412959793723
H       5.152241392636860      5.081360327378396     12.813434737133260
H       4.114126380101050      6.392735308270559     12.602406989189220
H       3.861549883541294      5.318439995594260     13.845447105286768
C       9.535462962688536      4.098408482984853      9.110654622848909
C       1.915133114136869      4.764587213680881      9.075704021159769
C       2.913177509802666      3.757656091039012      9.637154590567993
C       3.914547334678542      4.371403764526116     10.614892640709435
C       3.282435898956356      4.570107691013325     11.981078403542742
C       8.532014127030727      5.095739075505997      8.542153953992042
C       8.200958034872592      4.232919918314152      6.211257301289177
C       7.545790784694430      4.460292261696091      7.562691419941356
N       7.336124830902500      3.393545887525825      5.330711130178985
N       4.163823644847300      5.390925409111444     12.863945760915430
