16

H       3.222492239702736      5.121211781083889     19.460817392885669
H      10.717070341696605      3.295180183547362     18.305049173050506
H       4.075630665769275      3.825173639982066     18.567852534017373
H      10.548832087232357      3.171518052513888     19.949352702060363
H       3.414526463743613      5.229183235858413     17.680577063313834
H       9.900025070807391      4.464789022502408     19.148725066750771
C       3.275019479581089      4.560321617722914     18.528898430515984
N      10.715162667435264      3.834741010705177     19.180404249579350
H       5.861623961429059      0.311301487620034     18.736707106092297
H       6.891469272673621      1.257345973524403     19.648568299573551
H       7.713505390356645      7.465100558662524     18.154772427129988
H       7.035084598424151      1.242121915183905     17.998171408526549
H       8.782748899510771      8.509133988756640     19.138291576447354
H       7.559710792926484      7.478924228814085     19.938533610632660
C       7.787809916056025      8.072303690897142     19.055125741436246
N       6.834625117289845      0.651843837087048     18.817798661525838
