46

H       7.238105278586881      3.761445513057977      7.205706128959862
H       6.863217094016588      5.198363617705943      4.496424350279461
H       6.674175885090304      3.497779201154423      4.933212326837405
H       0.269039921809197      4.525973048842108      2.630113821787042
H       8.193040742459250      2.866939298002871      3.200829971120497
H       6.954226117148501      3.784567601651336      2.602797014308919
H       8.210518445068551      5.158541126986748      8.900337486422153
H       1.717910695173152      2.931318907331183      4.592795259687676
H       1.254270985930769      5.668565436270307      7.780423901366156
H       2.025593733872050      3.233330469643194      6.290935867459840
H       0.608682176712014      2.250641734963402      5.821853641315668
H       2.109691395788681      5.709723882138284      5.756212333722512
H       0.696107158838303      6.528368719287508      5.017370399016563
H       1.726865741931621      5.413579943479965      4.076375879333880
H       7.210622357560623      5.502728975021776      6.872584366550052
H       1.147361956978135      4.048802210556947      8.249644671741384
C       1.268022364343610      5.592261965631250      5.059144340408257
C       7.397165823813368      4.245775206469320      4.591559572335167
C       7.860292655095257      4.621792767622180      6.925561854984799
C       1.219359656917949      3.122908999996870      5.551455620468804
C       0.387271715215384      4.406112904078186      5.470651552924187
N       7.794691909148201      3.837379174013778      3.210084510978199
N       0.601645419154028      4.891054907093192      7.964118032968969
H       4.756402103099162      6.405509058717103      5.041604785041893
H       5.706944092381365      7.526896616088287      4.029555083154135
H       6.203792405573815      7.245659026464629      5.683264193449951
H       6.138792245174764      1.273689226832755      6.269048522268500
H       3.932818661192080      1.640771203808908      3.180847806557445
H       4.171802799952284      0.024813292621269      2.679975853987344
H       2.650584531687086      0.709649328518665      2.676428056473409
H       2.525204248194489      0.955179468215135      5.001405081569559
H       3.205299049347403      0.702467461054560      7.213005722515802
H       4.249258252539650      7.725071728932256      8.826187164785113
H       5.327242711407697      0.473206412887907      8.290989857068626
H       5.459154496719959      7.300754809566252      7.765322827247731
H       3.168639626404412      7.386842604723286      6.858573706159246
H       4.696566275488837      2.255798260366349      5.881064709329749
H       5.740669263757537      1.589238068178488      4.590984469611505
H       2.705719342547687      7.696383499826395      4.498444686261812
C       5.316857586120864      7.349186259022987      5.041727339267348
C       3.242284033503536      0.228944478920198      4.604364039383082
C       3.808059596530571      8.276657611410368      6.880219120128815
C       5.294728399455710      1.387317808778966      5.572952705748619
C       4.466040220662339      0.100435040211469      5.527403879585540
N       3.542651367489327      0.666638839281741      3.207358573645492
N       4.783966029512507      8.048162701289046      7.985745285761106
