16

H       1.675638757180554      4.542226485688330     13.695281927213914
H       0.404266327051754      5.607650502991742     13.504204572640173
H       0.463348332375958      3.939625474303514     11.688349435167721
H       7.144795423261859      3.784049487643491     12.773416424779882
H       8.465490274204390      4.337111356561772     14.745265436958475
H       0.310081850322644      2.661057589856037     12.942078006022667
C       8.231896522593203      3.661821136699347     12.779440356691959
N       0.633365253384354      4.607480486551355     13.688919573389521
H       4.434368975200218      1.510287528979197     13.359820562152052
H       4.084581737685087      7.972704248357988     14.728125705194200
H       3.969753864677848      6.969017003762050     13.395478886215917
H       2.795768394932073      8.131830807767637     13.651905129850746
H       5.695849583066874      0.262919872250342     13.072560428264628
H       4.336802500612492      0.442912172974119     11.915157972154306
C       4.633220903651477      0.507544127411371     12.966357300450360
N       3.819574397944618      7.948178508727028     13.724853708433166
