76

H       1.064160949194162      3.627293324273482     12.056713421655486
H       6.656572896796364      4.123877163560255      7.193866710231399
H       7.492169403304916      5.393443915164170      8.115770088232885
H       7.914400026148179      1.775389679798320      8.572434102559866
H       8.199628455655652      2.734052852948017      2.742312134375918
H       7.978316385144884      1.767913767830695      6.811315654364391
H       6.903085933493665      3.933217654166671      8.917382693033298
H       8.371931329190099      4.124336355177426      1.825406157832171
H       0.832031483755605      1.534747552111963      7.540096040499105
H       7.023586317031009      3.946097325526936      2.831972270573701
H       2.067122382399327      3.618988560241149      8.492269560918800
H       1.531619850793945      5.936867866199337      7.060764735377125
H       8.176872781487461      3.558433940729131     10.469203076541071
H       1.227939042997567      5.016331604684394     11.136106796101007
H       2.412997311922552      3.812558091980612     11.052644760783366
H       1.075973317307212      5.046691197567410      8.816403605909535
H       1.925770101666163      2.328166552129842      5.726319265697993
H       2.546885610654658      3.799948197612963      4.970219991821215
H       2.772682724685019      3.558328042254293      6.690495864434336
H       8.643376349034655      6.209279958232957      6.398606417075662
H       1.523214432127789      5.956429738157405      5.299581956452728
H       8.330390660991940      2.707918436322454      5.068812397578104
H       7.376124825028730      4.160374985695704      5.392480839630164
H       0.782476785644146      2.271945034752597     10.087967888590615
H       8.680768903869646      5.471932967407707      3.790049219256113
H       1.264820448078907      4.164151379812406      3.412943419731340
C       0.210757117062443      4.370794882202639      3.637217031132926
C       8.393266177115493      3.799600088835459      5.186457099651804
C       8.510872254938947      2.096699037516708      7.708666076011349
C       7.374949642795672      4.308109653034689      8.000337783069540
C       1.040521451187952      3.954048541677876      8.696451956942784
C       0.722139030565079      4.111968601203824      6.147101937949847
C       0.956783764563471      5.631551519183017      6.182087178672504
C       8.722230377160361      3.620437179629493      7.733338858005671
C       0.609135962721132      3.353856200655611     10.028159723159739
C       2.059728568949688      3.408006585849098      5.872000799274551
N       8.051743055664963      3.767842591083866      2.742540099052372
N       1.383377422017030      3.983620949910632     11.139316788126488
H       5.467554924954017      7.676309124505873      3.357130427281925
H       3.740758301964540      7.610644455287989      1.666401424689386
H       3.697639266140979      5.623501157892178      6.849769150917737
H       5.839090822282653      1.913984890501002      5.236841658276386
H       7.094988116560676      7.411535655770609      6.688863785383489
H       5.807705342160007      2.082065572256914      6.990453663799554
H       4.317342859698694      2.252802071110614      6.054190772002054
H       4.291629599972099      1.286074818616179      3.598939212480902
H       3.981749730534511      6.393544643735162      5.015931076893086
H       3.010554256327964      0.130474410881680      5.344698455273282
H       6.210485375012687      6.093330432372546      5.889915882824735
H       3.700984007350133      6.252105923781810      2.656666391856456
H       2.541738547233896      7.491581844719626      2.811980792618331
H       6.818307330599456      7.474594446261836      4.959592655988707
H       5.723151662297773      1.492414209871804     11.196134000717102
H       5.700168762560925      0.129913789543312     12.183108151297448
H       6.899181853594258      0.267814510809539     11.040782288690107
H       5.175568441860801      6.450720216588894     10.245546080978082
H       3.977441750342853      0.040488798789461     10.491524010918251
H       5.435462820788200      1.354122134921872      8.835505559783424
H       6.438164319912784      7.637874941028446      8.503198707235608
H       2.632035754912426      0.246020640987242      8.890736526214194
H       2.344377558065554      0.283258150603405      7.162476751913462
H       3.217207834637966      1.622123733603637      7.939307486808032
H       3.609099106906378      5.808237797375181      8.600905959796780
H       5.159848738560760      5.490189296277358      7.833234091817899
C       6.358254971766690      7.180396970533854      5.911740915042820
C       4.051928389006483      7.492002149614414      5.032874383827823
C       4.219839170257092      6.037352300466677      7.717390504448560
C       4.445468773208092      7.554315247521573      7.588104489011376
C       3.082757717189633      0.533206329471307      7.931908834911439
C       5.388688055217048      0.254408918891492      8.816107125675382
C       5.041176617320477      7.531728888479199     10.110381925600709
C       5.250657955359650      1.687641577681847      6.136057754214373
C       5.004202700737459      0.174054214641864      6.259665372016632
C       4.408378951113701      0.203422890184080      3.737378055460996
N       3.550252108947582      7.282292875291860      2.632143612514122
N       5.887727379753463      0.464005851480567     11.218512824288780
