32

H       7.906410096651164      4.183267578775401      0.656828312393351
H       1.088646823187956      4.670561578274780     26.896182451686087
H       8.666491195610151      1.950044598472322     26.046773761819988
H       0.934061397452760      3.294924138655002     24.929150484334006
H       7.482904025062766      3.109579664260690     26.083311863513423
H       2.371962324684483      3.429169780385553     26.846807147292484
C       1.301206163468209      3.603547430070823     26.949237518765873
N       8.509319328454037      2.970613536225490     26.021434788424504
H       3.464500047960213      6.383634756363043     26.487487362006821
H       3.093027070823074      1.051915741658328      0.060104463710452
H       5.980165170740880     -0.098206809919069     26.047855037210486
H       5.422421874725261      6.352337112707062     25.057708177071440
H       4.559188879717296     -0.016905822626213     25.156281207466957
H       4.031775807133294      7.344135785657575      0.041733274422722
C       4.305411038144933     -0.855602828869862     27.045973207474287
N       5.103229759373323     -0.590386282275411     25.819209973415386
H       3.591870199710465      6.701812365309698     20.130848355665584
H       4.201482526887935      0.423149656456824     21.070416247911730
H       5.675591515574236      5.632330625853784     20.652701612337822
H       6.298556490337908      7.055035300101473     21.291354499416816
H       5.953566746738980      6.972441862918703     19.672714048289400
H       3.968433179823107      6.833544620336268     21.871165880987711
C       4.214798545141642     -0.664885555837724     21.147121788935380
N       5.637056403044083      6.664736924604920     20.606694829688504
H       1.316918906113917      1.604173850936587     21.466995794090803
H       1.060016705014826      3.066085293920580     22.466461085180363
H       0.768136196864958      2.877719069492061     19.528259126821478
H       7.414293444984804      3.089052484954147     20.808904957397555
H       2.409180052950636      3.006876742940758     21.290253264388834
H       8.500370773257631      4.330278601739074     20.598205122813209
C       1.386852167234121      2.690291615851187     21.499564772002167
N       8.412497793268937      3.296894023918167     20.646440423750438
