48

H       3.894125482067426      6.634401184632934      6.833774217506158
H       2.732671069709845      7.721728485198874      8.756317032254271
H       2.596126358899844      1.285690785647622      7.750344284531925
H       5.197882316014176      7.726220798986942      8.784205539533961
H       2.382986925339220      7.392643496115138      6.304093594990865
H       5.478697320243609      1.562813680068340     10.039580999978817
H       3.507666095145856      1.400500372986430      5.345436001015950
H       4.637784208765051      0.261346242637752      3.529347134501374
H       3.209789037445236      7.644170378415310      3.986564957677321
H       4.540179329585852      6.761837737964281      4.442171425722085
H       6.109776526978224      7.786912793862515      6.269334657922199
H       3.932063931519003      1.076727503122767     10.375581712605728
H       6.362387364940586      1.640093990377006      7.752048531000610
H       5.981795401378221      1.362088933346954      5.290331566712287
H       4.189303804840258      2.454701667377726      9.482113334830641
H       4.877359313904808      2.449250841521853      7.211444682923503
C       5.360394887462259      1.471137633482781      7.358688292838420
C       5.442123425762957      0.750002210639290      6.018243861598269
C       4.035992735297156      0.457615298411678      5.535509893664395
C       3.380062683614666      7.596421813623346      6.692251064058983
C       4.565432278376798      0.677020560449683      8.379647091644182
C       3.168544960377909      0.356013064366784      7.883032787149871
N       4.528269226300621      1.485411181302140      9.646781519067192
N       4.168247314831130      7.723763102997725      4.361594011259475
H       1.741142625784204      3.961630492637066      5.628332349243021
H       0.413917202309760      2.729187124427905      4.041156678044224
H       0.643297878869864      4.333913092838063      3.555188402564630
H       7.063950737705030      3.945668491083864      4.073501600346431
H       0.698985095010187      6.189350633891989      5.245836596526618
H       7.048473098948155      5.674603748628050      5.731147326952351
H       0.358147241844629      6.895227716272159      7.591190090699925
H       1.723841413445567      5.777155673521136      7.491820923419136
H       0.269435973966062      2.077080462663611      6.416639825866031
H       6.811098866985283      3.312210930914084      6.417957053376563
H       7.846561856657894      2.875938367554106      8.677356635322953
H       6.810502631229946      5.108820489022682      8.316481842035751
H       0.053615935856450      4.626731434117997     10.468274065640390
H       1.490523439712767      3.384608158799989      8.170774750936030
H       1.530746455868456      5.071119082655082      9.804074809173041
H       0.325413485440286      6.222770299532673      9.987825566358779
C       7.896886238394380      3.213183825315270      6.538662038648503
C       7.903810474587880      5.000747738430105      8.287434609100826
C       0.635421484962980      5.858256806385990      7.378212052574831
C       0.244015247923182      5.491289428806014      5.951276567760688
C       0.647171711524951      4.063956273973260      5.637440228548770
C       0.399952225940446      3.473247492637769      8.056061471302632
N       0.188767077943838      3.721356584911343      4.252371552247059
N       0.505971856016898      5.223981863712164      9.758655242904023
