40

H       1.933162090143647      4.729222278687042      6.189155991096141
H       8.088184860711744      5.285703990365740      4.134059133679783
H       7.598532427549633      2.348933376731156      3.833250817288176
H       7.549058536151378      3.493831520068323      2.625625732738320
H       6.398389515947288      3.552719469359849      3.827008743396140
H       2.629539231820765      5.515639326777078      8.474361512664123
H       1.188006626330804      3.968770317466613      3.917343609640232
H       7.833939741064771      5.114744256643990      8.511998676281873
H       1.499824285905661      5.623456730110902      9.711041029349650
H       1.424648377399955      6.730385905876684      8.456590961872370
H       0.689315219144472      5.998786835520569      6.163564173853768
H       0.934794690002109      3.790640092568211      8.303154253308358
H       7.049116515972608      4.297014233721826      6.204347134522664
H       8.294481254032059      3.028817337390798      6.224870262058756
C       0.708376809938046      4.809476993724820      7.962493677831765
C       8.094792120261758      4.073786813861743      5.935732257937604
C       8.302101920254628      4.254349476344107      4.444135915623863
C       0.887905843531429      4.954904237542967      6.461677590136897
N       7.412373604142021      3.362410044756428      3.645239009494607
N       1.629875051259458      5.732117110647083      8.691637120297543
H       5.279007192357645      1.316963628429626      9.477864299454090
H       5.273866880493783      2.489092933464990      8.294643038160016
H       6.464480058551931      1.286378271645070      8.308291562386163
H       3.534495083037100      0.828083747647722      7.914789179145219
H       3.331602263436817      7.363931888025667      2.359441391442413
H       2.206900962422477      7.464220171354112      3.593672917825661
H       3.835617858405655      1.017808816587574      3.537329192582569
H       5.853377287656105      0.558542873266612      5.899557222134908
H       5.151606938261689      7.922796659785488      3.811614018851618
H       4.134062832110453      6.980472399117684      5.913572726493332
H       2.889987501174335      8.249059026610112      5.881347703424685
H       4.609289539154338      1.829069690265175      5.865903266940393
H       4.845078021951815      7.735875107363913      8.189100603025002
H       3.409568485451486      6.252264726504008      3.605311934107699
C       3.937757153298265      8.025183284368616      5.617281004004630
C       4.803859724237492      0.782416919824304      6.152829385941225
C       4.572108707478391      0.594209333845349      7.641138229765760
C       4.126589953350340      8.172899918377995      4.117181613221007
N       3.208410409240348      7.253207664611570      3.380332936225237
N       5.448949913512969      1.473742035578928      8.468527348894520
