100

H       4.902993606267010      4.647612588259575     16.810102888331862
H       3.133229300897606      5.416023121047904     14.511369468250185
H       0.790776629338788      4.539983090792749      7.126671044522718
H       8.344163903446574      5.636144824392010      8.656297792444684
H       6.483695623431718      4.103071280823546      8.251027709982113
H       7.559718251830188      2.855327771274553      7.647428073716219
H       7.265603780041536      5.595673088241074      6.291307573515966
H       6.314114965177265      4.164460013867729      5.856167417241412
H       7.843468900258737      3.870369234872207     10.365722590461845
H       0.576873021865610      4.329538041232637      4.928751945113670
H       8.362555429858332      3.000426367446072      5.359681162205157
H       4.291109527183464      4.098521326069688     14.309988942830687
H       2.013176416543044      4.105462624214740     16.377813395873982
H       9.960728956666898      3.810694317468518     14.922903596483373
H       1.681219370856963      1.764103497789765     10.834965883112041
H       8.191689048443138      4.390918269750242      4.443478867759090
H       1.871013875667384      6.330384367578641     10.725674220288317
H       1.455868893570639      6.330012441157630      9.015931031637550
H       2.730418233258343      2.893257489861490      9.390560209529594
H       8.882278459103864      6.308830299892880     11.003270175236832
H       9.000227848869761      2.799164980789782      9.598899920588588
H       3.320019790594356      2.911270033140975     16.279396606775862
H       3.700308732214948      4.594328043231744     17.959312381175735
H       3.684101172611661      5.812438683807563     16.813200120350391
H       2.606420485868963      4.263430944331343      8.288097516231320
H       3.409660966871061      4.470354924006577      9.835627677794498
H       2.413536493690338      2.532299484492612     13.789081108982076
H       8.638880796137707      2.003197995241433     11.640875330918268
H       9.529976302798087      1.861235783558431     13.150045577308589
H       8.729846939352726      5.446270668519335     13.207362602397914
H       8.242243431244749      3.844430917544521     13.759315877414766
H       7.662663347944187      4.443515456761673     12.217538038445101
H       2.464590188747396      5.181326859563978     12.287825029615204
H       3.196022612371807      3.657434546322390     11.805968505494373
C       9.571798629070278      2.275134043109706     12.137654937173153
C       9.764487599312897      3.798907845854838     12.192646724467773
C       8.534179970815515      4.419991166138789     12.877860740894857
C       2.308227851178295      4.094392444469661     12.276669034083223
C       2.247276964591840      3.615655996835004     13.729741585474535
C       3.262008699083477      4.329957985794231     14.619211504223363
C       3.054273917164822      3.952863649877676     16.075266288567427
C       7.249037981622847      4.500834950571003      6.311789390147566
C       7.426555354618866      3.943827232484574      7.711782210204821
C       2.568635878967534      3.975180578368387      9.342056981411520
C       8.797198399478235      3.855247332838433      9.821670518230521
C       1.172165953955705      5.920292036786218      9.990872712093269
C       1.222388567894953      4.383594753144722      9.958507218430775
C       8.576604066619215      4.576650500150855      8.493854245839996
N       8.345052098016165      4.033917468026107      5.402137599409026
N       3.888734020753601      4.808058072374922     16.969771084034068
H       7.422265676660107      7.997352674335708     12.221496076761014
H       5.587820123813648      0.354223867300331     14.644718950129256
H       7.014058330144415      1.208343868179533     14.067304378843041
H       8.482469783507097      7.834682924175487     14.597304999799459
H       7.078725970089871      6.835340942653950     14.971368430343626
H       7.843236136037152      0.890803002537353     16.605761315612046
H       3.233034425635825      1.973449010509471      4.920588829115744
H       5.241183484800728      2.110618811249586     12.808963578738840
H       2.059666582065632      0.774345130327861      4.898072306772659
H       4.958599301713882      0.322411780688318      5.362763204866118
H       9.251461684637453      7.580310311334098     17.076133353803812
H       2.605505279893382      0.137988969736626      7.335772481836207
H       3.748684438379216      1.482988035175556      7.263008587546270
H       5.652580022147320      8.401870888289883      7.501980393223073
H       3.711760115003766      7.576975159194622      5.239162662240469
H       6.127739794606956      7.001125551171553     12.859945954617517
H       4.322836070581136      1.087199528112592      9.515145850203275
H       7.768008051915647      0.084708661023664     10.507330285703892
H       6.844313967078635      1.190518346423329      9.482283005914695
H       7.265716073956477      8.081249138915283      8.784440685114369
H       4.871248516221825      6.112328406237001     10.772395690753697
H       6.638502470382154      6.224596750244190     10.795872605678746
H       4.512516474493113      7.074750306110867      7.682739802225417
H       3.544049630692696      8.052747666915206      9.684462379242126
H       3.270661173513660      0.780883489620597      3.751004403336320
H       6.403988957048229     -0.094332410678370     16.925721090065387
H       5.781176831706426      6.176965300956785      9.259823065081054
H       6.596618455269867      2.013560734044876     11.684685161389133
H       3.883969056047175      0.139303001445860     13.388952069066354
H       3.766830707398793      7.295441281357551     12.141494396192245
H       3.220912208269481      0.409166564139859     11.784016748764170
H       8.117443487444261      7.769724270761656     18.269273139685474
H       7.956011435877232      6.508549624055810     17.174699101628221
H       4.945742539338407      2.181808255495455     11.074826367334365
C       7.420731069015806     -0.114471035536043     16.520239102892511
C       4.641873898468863      8.153152403354161      7.844147411130986
C       3.642266770246313      0.402916746977882      7.084812766252901
C       3.916712269301614      0.110868712083735      5.622306344129813
C       4.461147297245011      0.000062211896534      9.447542847670427
C       7.448813591431635      7.870025153027013     14.972232130177577
C       5.560785486482063      1.704663458971841     11.843694204067726
C       3.984433078635466     -0.142960679882077     12.337400871117406
C       6.428073450054441      8.043159422620905     12.685535109839996
C       6.567932911589731      0.211583553790710     14.172371899368649
C       5.737461285517879      6.567875373479626     10.280839556744290
C       6.944537068201032      0.144227770092058      9.790638913977567
C       5.399371715017351      0.175826879230443     11.832358918723704
C       5.645063711051482      8.102064150915409     10.249710852615021
N       3.069950410769754      0.966314451735988      4.743458746910932
N       8.237566838719159      7.499957591543724     17.282054493823217
