32

H       0.420565461152658      3.084096589392173     19.064286881260315
H       0.717091145551300      5.894058964505205     20.053419414744337
H       0.532085108731060      4.523218416893486     21.022351274502260
H       7.331404730151163      4.317864502716392     19.185203262527093
H       0.580561876988246      4.547809184393478     18.039070015682295
H       1.911568268802569      4.734021574967028     20.066962835685992
C       8.410021054071755      4.153188537632121     19.109740776889740
N       0.878611576705191      4.865455170949366     20.107903558472078
H       4.269570962765313      7.299769500078904     19.691317587139245
H       3.080626381901995      8.440412230485038     19.969812609437700
H       5.972109593246387      0.635539073606455     19.489288456439990
H       4.318662492982059      8.210375476837116     21.088796507561351
H       4.704878616004780      1.865229743711814     19.824495761460422
H       4.658459849662076      0.914426966285261     18.303421600039538
C       4.915941299076077      0.894458237389408     19.365131646648702
N       4.098688029562291      8.253688693165719     20.076158604798803
H       1.876733813925113      4.070337692444781     13.034205901763135
H       0.785238601230447      5.435188209476078     12.643088783059834
H       8.255805990790083      2.993964079108003     14.317063459173744
H       0.469315865082940      3.812708664121060     11.947279436292856
H       7.209122540951270      4.240919724597496     13.975397518608586
H       0.347586945619862      4.523649938296099     14.840543151202198
C       0.842159353269123      4.358036367573652     12.819272177794751
N       8.214064452972760      4.013323088389782     14.122968790289706
H       4.369225055474264      0.397044939818593     12.168901139422111
H       3.124954437545747      0.161745190078340     13.441077393008161
H       6.037177888950974      0.688391582620451     13.927391097131510
H       4.886047397356137      0.466827769348718     15.110173131491738
H       4.809344975717877      1.812060712008672     14.104264944720130
H       4.459220921663866      7.362286528349570     13.279525892203109
C       4.192461822444003      8.422051192745954     13.215430075072980
N       5.019908803224982      0.793502292888821     14.138250726144696
