76

H       1.824504266046928      4.490591308153504     10.153819907263312
H       1.589100412119113      4.346331064203032      5.073983297968695
H       7.960428505336103      5.136228420139870      6.202751735005454
H       7.196868526375387      3.552220108499361      6.172562204224922
H       2.475518024357557      3.222071818499519      6.762076725870138
H       2.349210336607459      4.939372025068306      7.080924357428677
H       7.630368358081542      2.016037578915414      8.133687917348935
H       0.984179224678032      1.881492959594705      8.704560433814517
H       0.473153962256938      1.689053975628741      7.025341205288382
H       0.803673532550401      2.764747408296678      4.950934091778918
H       0.461916676061562      4.562539745073752     13.499190824852635
H       2.624196749808398      3.805979661812441      8.408630346949590
H       7.470247216268717      3.580304589326198      3.447251132525034
H       0.531782233633503      4.468639336369281      3.111421688826326
H       1.849726341186416      4.309535552102831     12.584026622154006
H       0.652936403763764      3.150837733249681     12.612855347238487
H       0.285249197338752      5.881914014875798     11.533185844395870
H       0.712780529396230      3.128057329883643     10.267534683210858
H       6.358201781967900      4.521560878218911      7.958946715042409
H       0.180440162340079      6.734912126154223      9.502519982423665
H       6.613426081208988      3.437807349204439      9.337256463504271
H       6.507845037792663      5.172098143214326      9.580394770589283
H       1.419832664748701      6.279207106023990      8.340917138373500
H       7.789436850456468      5.153247706345951      3.950401849860953
H       8.108082164904905      6.455339724721326      7.660396801367735
H       7.419545184063824      4.477682150990690     11.407233111848187
C       0.067796654527089      4.653294391153042      8.864682914079621
C       0.625579625384812      3.834361873270687      5.096808103734695
C       8.167324102734540      4.060988501051870      6.221044661014132
C       0.320660337078749      2.280977417163325      7.933225432059571
C       0.581477341832538      3.767033098403945      7.664473804485558
C       0.154193300232954      4.799389158751602     11.441388553510548
C       0.763036069735313      4.218601576658767     10.173548569103895
C       0.378747320033397      6.132490875926778      8.611750480643137
C       2.086320267609246      3.953135566340213      7.470764843945762
C       6.887427794824535      4.405364731567849      8.906981660188505
N       8.209248732253560      4.232559488623076      3.761493828937033
N       0.825421138558313      4.172315741280735     12.617289307538691
H       2.326267868631143      0.935331859094895     12.246067560590390
H       5.167073600069738      0.276481384456658     11.705883649330138
H       3.937177294091442      7.669319227380636      3.343949538765444
H       4.085312227541339      6.376792504047785      4.399617825499698
H       6.061919861922243      0.124822197480485      4.428066946815280
H       4.547733814569647      5.688302759581871      8.171381065391873
H       3.069068627799212      6.168602678325787      8.991672932904534
H       6.280279554236095      7.248500081698349     10.270873106619687
H       6.365514467317064      1.142421557164929      9.686726509883140
H       6.718729424659670      7.634818382658601      8.622348558282816
H       4.031957050404571      1.750020197285476     10.013748361599431
H       4.489878532157559      5.751343732232318      9.924739057726184
H       2.759250391334233      0.537645707807595      9.822415490741289
H       4.966111916582566      1.420801072603097      4.908790513834242
H       5.155071310943167      6.578244424507224      6.526742408894194
H       6.422145245178708      0.113617158881186      6.655795540142775
H       2.786362321754024      1.040829961230314      6.213608264567716
H       2.996874965587742      7.623286826660975      4.688260668764313
H       2.310674947197024      0.670970529852219      7.846949838533477
H       2.684793057377042      7.138919257751717      6.833009166116426
H       4.569666360331481      2.548901939786431      6.581496018553016
H       5.913773617481763      2.178575295613362      7.640823221765357
H       3.509169226046644      0.656974591127535     13.377448527523670
H       3.633682499654333      1.984968059233942     12.356703770734413
H       3.702525132883437      6.902489023577561     11.634652685875443
H       4.351578127274880      2.619969125363296      8.314288134476959
C       3.996181032561724      7.944974826175339     11.485955823112404
C       3.830030884113011      0.673033470290608     10.023849382160961
C       4.468890677348052      0.577012064461643      7.510589795084363
C       4.839868360114454      2.059411155442072      7.518111743413476
C       3.018514733363536      0.397940253650570      7.069645948935380
C       5.251318410669411      7.670173536598559      6.498467233992006
C       5.162652713419980      0.349971960189898      5.004081138963109
C       4.154677679999213      6.254442993011642      9.015778432199664
C       4.570017808925287      7.728784709029147      9.001396282167928
C       6.032355666850227      7.891485221204731      9.422941750601780
N       3.351668832078728      0.986342692249449     12.418597717929540
N       3.937655551495791      7.409003760425573      4.334581007662000
