16

H       1.909674698918938      4.653072853129398     17.416637743739535
H       7.331772989213983      4.317125715851171     17.929176098391956
H       0.088355013263133      3.014160885281318     17.759328591669277
H       0.817876524420350      5.900616351492024     17.612108289001370
H       0.659647256742871      4.864243975958297     16.333889975153976
H       0.289702767051392      3.681906689001952      0.669835552372347
C       0.024340973147020      4.034036232521933     18.139590745589580
N       0.911737336853181      4.907379834917893     17.328517471931171
H       4.141908061029504      0.270146971619326      0.668251066608370
H       4.441479861513524      2.017132716631685     18.029601402744749
H       3.890135897707831      6.952608209501219     17.294855602401125
H       4.175290652368307      0.486981163465510     16.214658351908255
H       2.836079092126453      0.361694157212683     17.208781247818045
H       5.654100354500619      0.705443499229384     18.121982419444858
C       4.595536249229421      0.950773513434938     18.196726634818106
N       3.737567763576920      7.973255035043540     17.200829028078282
