46

H       1.499271190027347      5.035103737778654      4.278005592632032
H       8.491019954420135      3.420075282058859      5.200351339432587
H       7.218831837199268      4.660396659021194      5.177393187362454
H       7.090119668358717      4.558698101448146      7.870536172599344
H       0.301990041215966      6.218931296650507      4.254605767203683
H       0.177628583141779      4.864723414902921      3.277351495207447
H       0.305291777606502      6.281551481762429     11.450842171783329
H       0.186459760832464      4.940888766576122     12.446818738570318
H       8.501026332871227      3.468356308090866     10.558704381125002
H       1.360727347296901      4.933228770887174      9.059476916638667
H       0.085457962058925      6.150165392489830      9.059249410453592
H       8.357167183719390      3.330635182527497      7.887741055961015
H       1.504978899655652      5.099928702138657     11.439657118652462
H       7.222338742005073      4.702135057158313     10.571275106462311
H       0.101939137729249      6.123197043619852      6.644388444791930
H       1.364310157622582      4.893147439879733      6.663372808227722
C       8.291081751282537      4.489787436511633      5.317250451225063
C       0.276123650644718      5.038783443856840      6.626457645710596
C       8.178824988074513      4.413787245050194      7.874158220327421
C       8.294841964347642      4.535321294501058     10.428433969712719
C       0.271036477312509      5.068109048482738      9.095816739731557
N       0.481747678629819      5.260315368700926     11.514492929768682
N       0.476073447649825      5.196571053450344      4.204325100904749
H       5.634981083535477      8.213000622973762      9.048641297166055
H       4.387183766304819      6.967984447015734      9.066377323170427
H       4.083488586182630      1.064524541180824      7.809172203284129
H       4.445659722071857      8.154103489949691      3.265578407550461
H       4.361119244278599      6.942117445773508      6.652246888435229
H       4.228875728012417      0.929565460973759      5.137104597733639
H       5.765377933728124      7.995550063590094      4.271240202898940
H       4.567440365329537      6.812179899742675      4.259389908291946
H       2.955175790782159      8.384151921586721      5.152356025782523
H       5.626759100422233      8.169029696894661      6.650866428460052
H       4.445557085814699      8.219477032566607     12.435378557190930
H       5.768642625950958      8.057551262902418     11.434804309343123
H       4.577095725182429      6.867648196403172     11.456141131570812
H       4.220788142023021      0.972034867576221     10.499498385122987
H       2.958249322203612      8.415379694523937     10.540538940611757
H       2.827430281768883      8.518826236635492      7.852624255899082
C       4.027265207173260      8.556150123923834      5.291832700856458
C       3.914666647875496      8.674209858663039      7.846522066700473
C       4.029229121917359      8.595576093810203     10.402728594326662
C       4.548698754640023      8.054370264036002      9.085904063000319
C       4.538111357159218      8.025642344140570      6.616390759290669
N       4.742337359294303      7.833760226630106      4.197115052289990
N       4.746263260582584      7.890787805063753     11.507973401786947
