24

N       0.926718980002718     -0.543922184426909     -2.648183255154426
H      -1.334738638925502     -0.774008476901858     -1.271953140379924
H      -1.273507817539703      0.847750089757236     -1.954592784157619
H      -1.949399558850857      0.553008743232711      2.825653056787253
H      -0.594936949427876      1.527418660198189      2.683467781612292
H      -2.310791574433460      0.868826303567558      0.302463316343941
H      -0.466604674480022      0.022789764604219      3.413443208978196
H      -1.117409765846781     -1.054311659304325      1.322933068970023
H      -0.811264748089263      1.814595235228597      0.288510495656744
H       1.949771327784902     -0.549202317821208     -2.826400224572174
H       1.116949176832270      1.054845011634724     -1.322090421526228
H       0.811470437280178     -1.814595235228596     -0.289117332894842
C      -0.635143345387304     -0.066892072945930      1.311038304327843
C      -1.222458857940074      0.798628181722532      0.203217778320115
C      -0.868392596264696      0.215373788749345     -1.158714784913366
H       1.273355317744462     -0.847737109618723      1.954323822250007
H       0.466388754936622     -0.021120551808266     -3.413443208978197
H       0.596584676124698     -1.526255725161013     -2.684430152119842
H       1.334711692440937      0.773878956366838      1.271616951061683
H       2.310791574433459     -0.868158551550036     -0.302835068082038
N      -0.926304396799816      0.545518640960687      2.647775805795174
C       0.635005625462792      0.067294845242833     -1.311105081236370
C       0.868240534028557     -0.215405718063404      1.158409724907479
C       1.222372874031050     -0.798515521914814     -0.203580701888583
