36

H       0.395310724274665      1.954420266593887     -0.883434634019735
N       2.976873144801112      1.416620942463374     -4.305176850342288
H      -2.864552753346141      1.737606896702268      2.450608238611048
H       2.419181297009426      2.222592754376955     -3.937840427458364
H       2.855242474494340     -0.666872984338139     -4.545272627354603
H       3.387933167186289      1.741610698681971     -5.208993501632744
H      -1.549324078483081      1.917912363079360      0.634442573758135
H      -1.795871821499503      2.381926666516120      4.552178685116163
H      -0.755411005884008      1.359716909494233      5.383091445772809
H      -0.669164469294047      0.692043434215369      3.120807218322108
H      -2.401348289220677      1.108796796069790      5.490821497473870
H      -3.004822571925063     -1.308208613138755      2.018236331897263
H      -1.541565595049477     -0.550381299532231      4.038010452978540
H      -3.744507973484911      0.554850260558374      3.417267254771595
H      -3.789707861386356     -0.068188561531394      1.044779140852047
H      -1.449591341717167     -2.381926666516120      0.670541650288407
H       0.502347308888225     -0.828041419431742     -3.675368510485221
H       0.497525209084352     -2.342246215631290     -0.888028236039212
H       0.443767278009619      0.909942233976217     -3.443996842813416
H       2.373499464418102      0.677566129865914     -1.764644657163687
H       2.275778983242652     -1.085071864239783     -1.983238337507975
H       1.673985522778151      0.275319991035730     -5.490821497473870
C      -1.669130311958104     -0.241817630905313      0.731667718989079
H       3.789707861386355      1.235497950332388     -3.691799413731343
C      -0.014738566304978      0.996654139589042     -0.553032902308865
C       0.037824541399146     -1.406522355586497     -0.558730079744095
C      -1.059994211012065     -1.428980894077145      0.304815826421888
C      -1.600304503447857      0.479381510564386      3.661250393812971
C       2.158203147632913      0.181107163694780     -4.511747656419988
C       1.120027553763497      0.040747257812054     -3.421638206857918
C       1.691785348616901     -0.152464278331624     -2.011693962635416
C      -2.882154284691988     -0.285233648529052      1.633241607648664
C       0.573963519718329     -0.192628048048824     -1.003175243189465
C      -2.838086017062670      0.695462046107571      2.808157733293983
C      -1.115975420893780      0.973662053656331      0.298746801052169
N      -1.638371508035589      1.388230735598901      4.846198031021022
