44

H      -1.971513834807937     -1.192162137388807     -2.747437534098803
H      -2.196188791073155      0.551853687783340     -2.914772692913314
H       0.180271599242220     -2.294133833318916     -0.293996788153621
H       0.897151839699804      1.524085834192697      2.971263341402915
H      -1.405503446895976     -2.237443223998099     -1.052168517902654
H      -1.339537821790422     -0.915976292266695     -6.252132229869255
H      -2.409912524377388     -1.440712061644600     -5.106663290441850
H      -0.003851009555419     -0.063367375102749      4.677289737060248
H       1.693848495991007      0.467125354663715      6.252132229869256
H       1.562907443572874      1.748227017725551      5.185484092853676
H       0.631132803108569     -1.328314822828668      1.891412266192020
H      -2.445672185755957      0.148709839932180     -5.599277378979325
H      -1.267081008757135     -2.058111081801045      0.695813707653196
H      -2.848559904895574     -0.224795875746439     -0.656602604659360
H      -2.290666796399717      0.273687880563048      0.936970175025547
H      -2.118541257844905      1.362596340056421     -0.447102503860448
H       1.200017388556761      2.294133833318916      0.956313359054963
H       0.119917145030337      2.289761822997383     -0.429508707790266
H       1.924202748643195     -1.067708551636937     -0.352936491989023
H       2.059212671400221      0.574348416019723     -0.980227489060262
H       2.610103778432297      0.208862921764015      0.647479478430936
C       1.035115231001921     -0.094869153437963      4.333768954762331
C       1.187112728878693      0.467794933357291      2.935454235188381
C       0.335815840223512     -0.271421699412174      1.907036410630090
C       1.830701848109367     -0.012261700507513     -0.086481519591274
C       0.439472490307672      0.316408254724498      0.476906163293874
C       0.292749640541322      1.841580688029850      0.553621561202545
H      -0.534872333719248      2.133593880760152      1.207361165308232
H      -0.708264177905367     -0.241097663526740      2.245053082961242
C      -0.332174231819957     -0.010950558106296     -1.924897774717438
C      -1.446235370038899     -0.248494162483619     -2.945841144201391
C      -0.689774439647660     -0.288618562720255     -0.448231621062909
C      -0.815549504103872     -0.325409520808100     -4.319761493543690
C      -0.794112469652982     -1.803481538239010     -0.258329750423572
C      -2.057962380234033      0.321132767710374     -0.131885513089962
N       1.832800997065224      0.754167523520384      5.274550823708491
H       2.848559904895573      0.678654630916830      5.070739936461013
H       0.014922858544477      1.023995141751380     -2.043471489533175
H       0.518603705920450     -0.645553890681514     -2.199411656439626
H      -0.070923816844758     -1.124887700076609     -4.360855970852807
H      -0.331469281485756      0.610435603574670     -4.613405583710453
H       1.404880906682367     -1.120373649645055      4.429275382224038
N      -1.821000075810794     -0.644685926891129     -5.381254284979566
H       2.249736029653009      0.440873098151187      2.659901395625319
