24

H      -1.470319431470369      1.006795271326568     -0.924948883944482
C       0.063965629701638     -0.382335208435392     -1.427124943000432
C       0.331914881735701     -1.012554657863675      0.991651836371920
H      -0.374281851193975     -0.113858222056724     -3.456696005515060
C      -0.097946144367222      0.380675174548531      1.413690108247540
H      -1.405191449800179     -1.321989963098060     -0.235461118814573
H      -1.665546339308556     -0.704656908117324     -2.578748062678155
N       0.639735542927653      0.767661416593925      2.658356030969808
H      -0.369507196346717     -1.722643252435451     -2.964380310841635
H      -1.168351913992959      0.410963243043073      1.659561324798574
C      -0.315776261661937     -1.374166071686003     -0.339676627972745
C      -0.373418381586636      1.010437983539025     -1.013851959446582
N      -0.633958373433281     -0.754931785049661     -2.693787603978005
H       1.665546339308557      0.707184130510877      2.506649088786906
H       1.140782667599513     -0.410460102325875     -1.642447365226211
H      -0.053130380975189     -2.396445349941888     -0.627537756019788
H       0.073047665107120     -1.755046423013006      1.752465933510747
H       1.427775331152148     -1.014863128322669      0.885958743099601
H       0.427671884838752      0.153256138874010      3.456696005515060
H       0.386185560533198      1.736818748777304      2.923021724275626
H      -0.009556298286292      2.396445349941888      0.609056707300494
H       1.347455168205022      1.330559369095718      0.217617994680946
H      -0.101514600788585      1.753535876840802     -1.771938575635627
C       0.258747582171411      1.375714641538889      0.322034355737702
