29

H       1.501124025009296     -0.470332894247704      4.717627420299390
H       0.066560629382820      1.297363771288397      3.984845344249811
H      -0.185482194998154      1.556892897615468      1.339176279977844
H      -1.601005835780652      0.504543981974027      1.359504065834926
H       0.136484592122208      1.324014395271204     -3.988038820024049
H       0.258686643839612     -0.278591600075643      5.814436761767702
H       0.236522940581951     -1.570053845525529      4.748650498077426
H      -0.163252977845234      1.570053845525528     -1.330375177102932
H      -1.319631693644744      0.186215061563034      4.066047991530803
H       1.258783035288591     -0.218312503913396     -2.342251506406752
H      -0.225625772851642     -1.318497033696658      2.399824117819835
H       1.188082285797637     -0.272124415243185      2.359374483512147
H      -0.367906462328847     -1.187100425073258     -0.010760593113305
H       1.601005835780652     -0.430307867827763     -4.705352860014631
H       0.368011678299732     -0.251571204393732     -5.814436761767702
H       0.346679468425770     -1.540950180865171     -4.750504581341617
H      -1.566535488271835      0.503833178546087     -1.402728439494789
H      -0.129179630698681     -1.297883745148074     -2.409973045027989
H       1.061553665117793     -0.175498261324043      0.011392329742581
H      -1.234443615574898      0.195238562892261     -4.082501685010071
C      -0.472706321684662      0.516817595608048     -1.307981106055736
C      -0.504744743948806      0.507224841923810      1.296854219166693
C      -0.251238924334318      0.260037356054999      3.840126005603599
C      -0.169358087229001      0.282771973527920     -3.846042348724314
C      -0.037176756941882     -0.138829490178230     -0.002472594619993
C       0.167296717141461     -0.241832634910693     -2.465209690812511
C       0.094384006233707     -0.269999293699984      2.463460016575107
N       0.579259607549288     -0.537040255066069     -4.847929346441770
N       0.477496626976234     -0.567793791957618      4.850876290971490
