23

H      -1.366256468236910      0.904805960539808      1.139830063819031
H      -0.361761648051596     -1.451156651150260     -2.663153082409581
H      -1.012839261513288     -0.799847994744693      1.464880760529663
C       0.934598206747610      1.229550236143095     -0.616558655074964
C       0.098313261830416      0.004218940250103     -0.229661133836256
C       0.964063020723513     -1.259280981405038     -0.223288397973134
H      -1.631390505064054     -0.493906878559820     -3.150176546463497
H      -1.650641222213136      0.819119585206633     -1.232028474189301
N       0.374419259667585      0.571832732005695      2.240473373170425
H      -1.793297101225233     -0.895103961391618     -0.844574166118305
C      -1.096694937528698     -0.123475283068901     -1.186854327770014
C      -0.566355219163052      0.153512967651818      1.153353591471435
N      -0.751765917707382     -0.478503464892072     -2.596603746477864
H       0.363424810019305      1.615887548153412      2.312654410440254
H       1.367729878091280      0.282216968157764      2.097684196129926
H       0.340353332932125      2.152712597412037     -0.597742943306432
H       1.359720059692604      1.104840504982130     -1.623090863727471
H       1.793297101225233      1.339660860578229      0.060409723068880
H       1.781203931069248     -1.164473368525828      0.506884868547296
H       1.447192558639996     -1.400780239036049     -1.197726712770257
H       0.374016207377844     -2.152712597412038      0.022739263666932
H      -0.109906264738802      0.189994761623409     -3.073144342111647
H       0.060499169435287      0.172998934452439      3.150176546463498
