29

H      -0.822078902192304     -0.440046383771506     -2.701315170470227
H       0.334024906835927      1.089103076080879      2.626440199205385
H       0.616448131641961     -1.667492754851231      1.291915510538381
H      -1.985265196808159     -0.240536653611510     -0.942365167548442
H       0.980467921228625      1.860907553075312     -0.150494387420655
H       0.683106761420937     -0.535220008826027     -4.587725829357312
H      -1.370884035281902     -1.738237140958840     -0.252402394191213
H      -2.000233631357725     -0.462517303492503      0.801773884078081
H      -0.503347237955011      1.866844711962155      0.807735161182096
H      -0.589195576766619      1.809103437784653     -0.948912853364069
C       0.795473904694720     -0.617252444157944     -1.232850048880533
C       0.695958312081473     -0.570997491024324      1.245255740000335
C       0.228394466219214     -0.167793860668092     -2.570960993387652
H      -0.963119917778158     -0.116723218200941      2.606179017369355
C       0.119679226088277      0.021616950922002      2.524587965796375
C      -1.420898612897388     -0.656828664678180     -0.105830358009174
N       0.723874385434824     -0.653185650434646      3.707932760914543
N       0.983506119566082     -0.839959636402023     -3.659844335539523
C      -0.004147461822208     -0.081465778562796     -0.036840129863551
C      -0.031675148051018      1.447016798436210     -0.080279067261496
H       1.766923809067514     -0.329359437108930      1.197386364381209
H       0.331795900682497      0.909186842615401     -2.725449811195602
H       0.804487757699350     -1.716222255599026     -1.196037656633600
H       1.840217727633183     -0.288191055776965     -1.161455763211943
H       1.755638687935399     -0.562629863788759      3.690643622204684
H       0.363813211988358     -0.250409043434510      4.587725829357311
H       2.000233631357725     -0.649061635301650     -3.561502224628638
H       0.858261564576562     -1.866844711962154     -3.588195647442231
H       0.485867265846743     -1.664604364816731      3.698826637061709
