36

C      -1.880535951427864     -1.259893310389798      4.531649012019056
H       0.596854796334420      0.973005105717750     -5.408826328731148
C      -0.754830131582714     -0.738895875925865      0.910264474850923
H      -2.037446057212358      0.613685272737162      5.505200994695091
H      -3.339707817800684     -0.411834545864255      5.775940686408227
H       0.558079371360355      1.704967895761217     -3.074835966659869
H      -1.395948258851436      0.303333453014741     -2.274488001424121
H       1.716041910965756      2.209825622029537     -5.517224516179084
H       1.791384404032725      0.919452784822989     -6.560352820622679
H       3.339707817800684      1.038892772065902     -4.393381089364347
C      -1.395764820053743     -1.431911002331877      2.082513908396123
H       2.075467498366528      1.674595111336316     -2.168138890987240
H      -1.908741941388040     -0.693034738284215      6.560352820622679
H       2.253627246123203      0.560572889412724     -0.042933247382422
H       1.147137891732736     -0.524492931173099      1.890776509989809
H      -2.616559345711590      0.102094458805253      3.017112496861305
H      -0.892877674802990      0.239224047136108      3.363111146263996
C      -1.459600727108836     -0.482144597006045     -0.267531798503224
C      -0.837513602975807      0.126224359420044     -1.357771075255307
C       2.486113459858445      0.403646972565307     -4.644192955834715
C       1.744674894992865     -0.066408591640064     -3.407581847284657
C       1.231866094682150      1.057409703237838     -2.499875317262319
C       0.510959545405817      0.498174092151500     -1.300161321206687
C       1.206971395284514      0.265760079257345     -0.110091099819432
C       0.585251214789817     -0.338648751393601      0.976568668663479
C      -1.712091876469206     -0.480078435044978      3.241781164994769
N       1.601522831729189      1.181480503762351     -5.578634420948362
N      -2.306047414059579     -0.377842341093954      5.659279874031473
H      -0.712013457593269     -2.209825622029536      2.453381742382383
H      -2.506243928774928     -0.778735302329355     -0.331583888717752
H       2.857967403138681     -0.452663586623639     -5.212162432295202
H       2.437548244093077     -0.697895781045290     -2.838068458096512
H       0.913218869030539     -0.715213289209257     -3.711654460633930
H      -2.310919955755538     -1.945384183827507      1.767348652978413
H      -0.934673252059222     -1.730195879416089      4.811750153585503
H      -2.632590366136262     -2.045882190177966      4.434348296405922
