20

C      -0.210183277332886      0.379922163348912      0.592697791017690
C       0.297505393012734     -0.244163727735602      1.877619035677617
H      -0.070624243104041     -1.442506153824682     -0.555523328131326
N      -0.289578478202183      0.486335510580798      3.034079932999173
H       1.359598164712568     -0.412500033257187     -0.663948367997642
H      -0.049696630398983     -1.496948681057400     -3.038106248169636
H       1.225520781695488     -0.433403940629420     -3.130689823983132
H      -0.003799191848628     -1.293234958734919      1.969974003299649
C       0.262942365069610     -0.398817267014373     -0.621932247425249
H       0.130147874879463      1.422595010449754      0.532019330477498
H      -1.308535234265715      0.401311847176096      0.613911527740841
N       0.194170354309556     -0.488782415909930     -3.086069692233655
H       1.387429590094392     -0.185867865825356      1.963363442630218
H       0.020197697684719      1.281031335944530     -1.987870975709860
H      -1.387429590094393      0.203162508671429     -1.902972679471411
H      -0.081390182662049      1.496948681057399      2.974598005388248
H       0.067569348900090      0.124065220448113      3.933510832895974
H      -1.319655788683183      0.377996375950799      3.021312030026486
H      -0.202356307500672     -0.067275918667944     -3.933510832895974
C      -0.294087544207414      0.237523941056152     -1.879514033607707
