50

H       1.358798657609947     -2.217956393624558     -5.487028547649420
H       0.048270190155186     -3.208955855224822     -3.592373032823285
H      -1.504310184906800     -2.610335065466143     -6.240469862768106
H      -0.311774810609806     -3.814885633108824     -6.228869149711666
H       1.565296615292386     -1.325122737591682     -2.989045393583864
H       0.079304171004605     -2.120455605458372     -1.153711735383892
H       0.264079504218556      2.195648254443254     -0.708097726874442
H       0.562170868800475      1.463826807667305     -2.278868294415080
H      -1.272741872242795     -2.065817510443116     -3.891229095436795
H       2.377417052964736      0.050928224678660     -1.492052465333140
H       0.344325483139704     -0.156835836705052     -3.488830638693986
H      -1.214075542339399     -1.076451856344003     -1.727230011751832
H      -1.058677578344237      1.410848649664885     -1.587357226125498
N       0.671836760676623      2.799365961534375      6.312269457325483
H      -0.223779824869602     -2.538228364642262     -7.310334146003524
H       2.271673745105645      0.687926692495964      0.144610853394711
H       0.511156236820451      3.814885633108823      6.126607599021513
H      -2.377417052964736     -0.170536120359185      1.580553323098446
N      -0.478807401457660     -2.786365579250089     -6.338206084784751
H       1.147829141148916      1.070681846553580      1.740843465685249
H      -0.048581888943934      3.101698587632332      3.628607042378237
H      -1.576375277399250      1.180429968151034      3.134249654905105
H      -0.305467063714138      0.043762771541551      3.575320438586783
H      -0.251212333767687      1.990675462802562      1.210575437117132
H      -2.254074289395891      0.720419654679718      0.057880686695658
H      -0.533666955712509     -1.628344211770171      2.358781778901344
H      -2.230657275120122     -1.052932867999453      0.065968682519429
H       1.113062930742249     -1.450139953762022      1.756295606945814
H       1.291462066719427      1.971189539110926      3.885873658359811
H       0.446002453343384      2.648363767939991      7.310334146003525
H      -0.097862178221733     -2.334267555093827      0.806262003418933
H      -1.228981153839061      2.195434366291182      5.642298548341056
H      -0.020325332684658      0.896927206695203      5.784968681790518
H       1.679426263606464      2.573156024270006      6.177583943398071
C       0.479588377667330     -1.143611618009330     -3.020454855287284
C       0.197337964482850      2.084346790002135      3.979792520620130
C      -0.176419621507733     -2.183516798710463     -3.930898712320168
C       0.295991973706464     -1.970760057066079     -5.357483056281361
C      -0.121076324442571     -1.142297424642316     -1.614774229105205
C      -0.356531079939156     -0.145742311512084      0.757369626528327
C      -1.886404518327748     -0.159856058705330      0.599135285941344
C       0.049327004740160      1.040342513136312      1.675672147311163
C       0.354332678051923     -0.006794329470784     -0.670209394279873
C      -0.486274077756915      1.023602920496835      3.111423517838011
C       0.008597216326345      1.337853668917056     -1.339262755040115
C       1.883586404409749     -0.089935027615035     -0.522214017499499
C      -0.181564724558406      1.929343659436322      5.445724556149221
C       0.058011030951002     -1.459834868014929      1.449945750915887
H       2.204521787634349     -1.061401994422645     -0.128360980400002
H       0.160428940283882     -0.921432514755944     -5.650858833860107
