35

H      -0.738952676834116      0.447317431796596      1.341961205205301
H      -2.765254819196204     -0.029095806818418     -2.906193647122048
H      -1.984621083524479      1.382501705209568     -3.662972133693575
H      -0.479895009540671     -1.086976927953195     -2.689236787721434
H      -0.622065902368154      1.649535887407147     -1.317088739466895
H      -2.811609218659231     -0.378717949429820     -5.186702615652619
H      -1.587451938187972      0.268261469800106     -0.809362931839900
H      -1.619029123771217     -1.397389308422595     -4.632570730833533
H      -0.052352112771638      0.791284104036259      3.699549870810248
H      -0.450319845833732     -1.825894669024459      0.068874177671054
H       0.252891872406757      0.400617531822699     -3.264124764766654
H       1.563006518855580     -0.808119287058177      4.533007537275516
H       2.811609218659230      0.261558971959382      4.329937400236712
H       1.558537711160081      0.617654622919121      5.404240178819423
H      -1.194269069128102      0.032492358597775     -5.404240178819423
H       1.282914119003250      1.916898879000183      3.382163561601855
H       1.077082271956090     -0.922503929114002      2.251374030418713
H       1.796188585660749      1.647721174389803     -1.099361192919002
H       2.080269848982299      0.090200821796884     -1.905208863854426
H       0.698521317769702     -1.916898879000182     -1.279297449146958
H       2.676310323900859      0.363314883409731     -0.265900196140787
H       1.289789451225296     -1.823336669651333      0.374737085502744
C      -1.879670971321657      0.313333884828944     -3.453928623388645
H       0.372075471751813      1.760581324107820      0.946872856060875
C      -0.635250946818055      0.550738108803398     -1.284084782548664
C      -0.601463379723111      0.002536082785939     -2.703742152024790
N      -1.876795256095843     -0.399859289050127     -4.757847000883971
H       2.291248475522565      0.270100431131133      1.795849357955555
C       0.515399831709692      0.066237010594849     -0.382887570444698
C       1.000229727420873      0.859153124004211      3.407469958999863
C       1.240707375261916      0.149513752281359      2.093112758914394
C       0.290442396493221      0.664834729976657      1.018585171927723
C       0.512784784771798     -1.462576780733043     -0.301546525769270
C       1.845106594018256      0.565483999014206     -0.947654464229371
N       1.787813344011031      0.204857473836403      4.490482687591967
