32

H      -0.427483227403365     -1.171592836084779     -0.591305450692046
H       1.326201945005654     -1.166190194040452     -0.698088053930086
H      -0.368609695825161      1.158579483437428     -1.734203642511617
H      -0.415513388593103      0.948120981942379      0.666117319733928
H       1.335269109656959      1.034690717907278      0.589755612644295
H       1.589723363988694     -0.881784983552200      2.063064137258234
H      -1.589723363988694     -0.390971014407273     -5.481885191725854
H       0.768588749281050      1.250971006856995      3.187133144960363
H      -0.881102018505429      0.689620983581213      2.957168122814789
H      -0.261743291212481      1.385061628850350      5.424163022781043
H      -0.375662252314327      0.036687416099234      6.412771141387333
H       0.605554663981859     -1.316480957166731     -3.255004051853962
H       1.036832749877480      0.670767578616823     -4.620638826616998
H       1.326450721231035      0.839585866970594     -2.079712254825012
H      -0.566419886168696      1.338564794717156     -4.267520312929267
H      -0.088670589794032     -1.365056292886779      1.841151524579526
H      -0.319891932999242      0.191828140339364     -6.412771141387333
H      -1.551198468112362      0.328975778919988      5.263251179498377
H       1.239181736375549     -0.535872714745897      4.785918918707260
H      -0.194931452962232     -1.285646226399320     -5.606004127895128
H      -0.270690674549461     -1.385061628850350      4.379050694945532
H      -1.071222129326272     -0.841070042048612     -2.988487963258389
C       0.150685196105610      0.344544585362849      3.117956185902500
C       0.493080241767362      0.328736261821366      0.632381932123819
C       0.358919962329970      0.349717924300199     -1.896570097331390
C       0.005336178930765      0.410208745159879     -4.372238306099389
C       0.211520409034858     -0.403736128268205      4.436157926547267
C       0.448044767491482     -0.508004964469736     -0.638376098511184
C      -0.054038929483687     -0.448789668960720     -3.126155494473475
N      -0.556882970084372     -0.313724796048352     -5.550031236968720
N      -0.529559227620498      0.389129609997141      5.458678304043158
C       0.573335265615454     -0.490728782265355      1.918540354239724
