50

H      -0.045168779791389     -2.280265786877595     -7.414228885793039
H      -0.249427769866537      1.990666537261907      1.280559120600300
H      -0.189680359114443     -2.304598461106389      0.654309872973593
H      -1.324308221234397     -2.405798463105870     -6.352230375794778
H      -0.568085253155000     -1.648725438300227      2.242793549137655
C       0.524876383872783     -0.913227095739269     -3.103018182537124
C       0.367583650173014      0.102690535139379     -0.699630403074135
C       1.893233393208471      0.051394905928500     -0.519165509823569
H      -2.233428026238639      0.864765432651904      0.074620499087148
H      -0.104600874769531     -3.583917250190466     -6.362372781279188
H      -2.402991634971094     -0.193033362176892      1.482439685259218
H      -2.242083241776260     -0.896715694397064     -0.120090314523171
H      -0.253174332116133     -0.065264753571123      3.549442694122799
H      -0.320392856939155      3.000443193929599      3.688748851576634
H      -1.125421310110643     -1.988209092504288     -3.992521081112253
H      -1.627027074610871      0.941624386557822      3.098566914000720
H      -1.151709143461003     -1.003305103789678     -1.795040483834901
H      -1.060278193302141      1.529182757321112     -1.579203829702395
H       0.080473977880501      3.583917250190466      6.362498957917564
H       0.020439575740103      2.279979917428682      7.414228885793039
H      -0.258944902925439      0.682390842903215      5.711331591526060
N       0.270459920724896      2.557111836393067      6.449092582513975
H       1.624725905701833     -0.972347946999692     -3.087420990786490
H      -1.531076893276636      1.910797988144160      5.574697957227754
H       1.071596692739103     -1.506696571480446      1.611451008299992
H       1.135928713361267      1.033009319606998      1.781893962590495
H       0.244413296947384     -0.683658344916532     -5.711494898955131
H       0.567555580848442      1.635632750462358     -2.246155607887276
C      -0.022809785355225     -2.003298782586717     -4.025473705196769
H       1.512997047060777     -1.916114630780598     -5.578492922393188
H       0.274176344004891      0.060113530849323     -3.550783062501067
C      -0.367330035640736     -0.109095658924808      0.701714580754707
C       0.011044576104410     -1.464777653747469      1.328956445138653
H       0.205405990488608     -1.993662254962863     -1.280810896529072
C       0.004809821503602      1.465396827111322     -1.319643677753445
C      -1.893271852987564     -0.078479588860326      0.518129401595395
H       0.238362954380425      2.301608717808270     -0.651236612920977
H       2.222940560357420     -0.913151267761123     -0.116785178224905
C       0.039243346857480      1.012484859356467      1.691119913808986
H       2.252220718731280      0.838198507384878      0.153072163743440
C      -0.055738449809200     -1.008635357428713     -1.694021694524814
H       2.402991634971093      0.200248467692531     -1.478751690352411
C      -0.525995821771557      0.903554418512185      3.105117633135306
H       0.296531624632131     -3.005775749915834     -3.692966214140558
C       0.007931697508171      2.002204178360843      4.025219607865250
H       1.302505805678161      2.408601424186050      6.356189443561759
N      -0.292906654886890     -2.556757631519370     -6.448314867813091
H       1.110721280544368      1.997987082959359      3.995313927254040
C      -0.455642313462788      1.728983269819242      5.444483966271827
C       0.438497703473271     -1.730956082589250     -5.445565857040036
