23

H       1.223204727288628      1.082199400924047     -4.090778110493670
H       2.251327517175233      0.991422300752335     -2.786487474167763
H      -0.933791842150126      0.818443392618278      1.704574720189362
H      -0.710158204926579      0.649708859368985     -2.777701967685601
C      -0.506541460766256     -0.147597538947549      1.396037811963167
H       0.500612881158994     -0.644214291516204     -2.612516175558576
C       0.273523060164505      0.400356688294623     -2.358764397299256
C       0.327139534440080      0.630109450427915     -0.857802781438581
H      -0.319812438419484     -1.364674012092906     -0.378999003216736
H      -0.901505840282395     -2.265516994606452      1.735289577178852
H      -2.251327517175233     -1.202816775610231      2.222669882494798
H      -1.037381684799079     -2.121519064214953      4.090778110493670
H       0.397537766681214     -1.405621784695822      3.565517063986914
N       1.280778633593113      1.248440196021537     -3.070409275416586
C      -0.605339912837648     -0.331415664739358     -0.116672740597191
C      -1.157024379196495     -1.288026780170578      2.165333718812042
H       1.359766651120770      0.470571051638087     -0.501539008601342
H       0.065365672336852      1.675984169780129     -0.625478814613465
H      -1.641891001621250     -0.188523838367280     -0.462620015074868
N      -0.641315976616614     -1.317804720518086      3.570817580326008
H       1.112183847456301      2.265516994606452     -2.889883919438329
H       0.560424169813862     -0.117142750225815      1.669794381532145
H      -0.915644961412196     -0.457350644159233      4.081515904269748
