29

H      -1.592768988015693     -0.363756455961637     -1.355361484691803
H      -0.064139274812653      1.325726040479882     -2.409614420804790
H      -1.316341847596894     -0.105676438234447     -4.040153363162505
H      -1.569067565778721     -0.366697726390697      1.385426753788915
H      -0.273483102397272     -1.535136283304752     -1.329788033336470
H      -0.017825161705733      1.319696380052481      2.413627078825373
H       1.290957191272382      0.142058583733832      2.362994198501992
H      -0.219017377782697      1.222000244035754      0.005352503285504
H      -0.251315892116800     -1.538868104647532      1.333511842701343
H       0.333787002842914      0.244731553371291      5.823659345555347
H       1.592768988015694      0.375164885491160      4.736294814785998
H       0.381370015899742      1.537288107165797      4.766486480413974
H       0.051621677483231     -1.312651490802295      3.994555884396778
C       0.159636250413039      0.251743504187359     -2.468784441925952
C       0.020974756243760      0.148818248656015      0.001760461640368
H      -1.257396181420630     -0.111621534553771      4.055997989727665
C       0.202142449213689      0.244758894903500      2.470003527962133
C      -0.478104247918289     -0.464657322638263      1.305028502457349
C      -0.500497299552018     -0.461158936485820     -1.294436007984283
C      -0.250588539325832     -0.251957197713597     -3.837869586648919
C      -0.193352195913979     -0.256579922268011      3.844179318138126
N       0.508631502675753      0.524834353511690     -4.864800247777849
N       0.573826925008536      0.523879660570555      4.862249211387509
H       1.119060383477322      0.090145173017679     -0.007950423954837
H       1.528183818691565      0.374588220002949     -4.746910031529170
H       1.250169755006519      0.153692917740234     -2.376266438855001
H      -0.008770480748629     -1.308757333221588     -3.988117879425937
H       0.259732380276867      0.244521713875334     -5.823659345555346
H       0.318713988676281      1.538868104647531     -4.769606743257894
