29

H      -1.045870068840634      0.147336304658478     -2.634239116277477
H       0.038680034061327     -1.261333660331632     -2.612900543172756
H       0.902094262319972      1.586824121084058      1.144275046850065
H       0.236045566221712     -0.870161804600757      2.862249987921543
H       1.764594153745147      0.186452944941227     -3.639510173116359
H      -1.261243954944689     -1.670629684616436     -0.670786505410090
H       0.227330178315897     -2.054753899403325      0.214094483494053
H      -1.222204684490149     -1.531695506198550      1.088433906154473
H      -1.156549713521633      2.054753899403325     -0.056496337292177
H      -2.045143741826042      0.871032289597895      0.940524373343090
H      -2.095137244292501      0.748049302630365     -0.820378743963121
C       0.633741447261613      0.328717398533999     -1.228627006427977
C       0.723025337746936      0.500874360175017      1.221800813319219
H      -0.810158691186447      0.569290861121945      2.799717791805228
C       0.000227886857280     -0.167920202319347     -2.520040767138786
C      -0.630661373808590     -1.373212147337434      0.177178888808897
C      -0.198777352639747      0.093477648091778      0.052617859538476
C       0.209197489045073      0.201308669419623      2.623504761793453
C      -1.442608604643059      0.995197103033127      0.029615361938260
N       0.743578108167220      0.394864879394077     -3.689223545689259
N       1.097265650231463      0.898921532136881      3.603103450803173
H       1.702754058936151      0.008586107992754      1.104059900608598
H       2.095137244292502      0.623481896647982      3.472937895252039
H       0.834391317338051      0.674427014402646      4.578625788681609
H       1.004811037186792      1.931330500966231      3.485976381292606
H       0.814317895749683      1.412623716441186     -1.320075043076506
H       1.622324856938032     -0.146126809475847     -1.121218824596115
H       0.642338630749382      1.432374982562894     -3.719911300962171
H       0.367695644320976      0.007357226331615     -4.578625788681609
