36

H      -1.165396660347850      2.331909377631717      0.603808058242647
H      -0.006012311830979      2.590249498433614      4.706793098612382
H      -0.492848302316355      1.535240741093597      5.887431682898910
H      -0.806794455199615     -0.247269489669503      4.417122387446138
H      -3.277600766695858      1.020522223840091      1.819462953380265
H      -1.524517254362522      2.352311422454001      2.941392460509512
H      -2.736927256554950     -0.444696544999354      2.635538429174543
H      -1.356088606366819     -1.880248544939609      1.387177078392009
H       0.367806820405261     -2.281011092913720     -0.323922508506345
N       1.525234359705085     -0.654710440441069     -4.913752478891761
H       0.496625165300326     -1.939639559066457     -2.817055658628108
H       0.507659657647728     -0.819834627349954     -4.905281146560926
H       0.580370892160630      1.932804677130759     -1.097373311323950
H      -2.560009295147671      1.525615637131418      4.111715717529716
H       0.203774048767405      0.544410453860704      3.196920333957239
H       1.010115765607498      1.337353053365361      5.153711356994231
H       2.683126906776156     -0.407862310887572     -1.365642994087350
H       1.693043641855983      0.463658497700940     -2.511262906887477
H       1.994106360113976     -2.552510336071626     -2.123967151926193
H       3.277600766695858     -1.292375015519127     -3.950769310584561
H       1.851163757020192     -0.770312861811752     -5.887431682898910
H       1.671323743292515      0.335118240493920     -4.648085990573364
C       0.039957565509411     -1.263196578161284     -0.126137375663403
C      -0.941179612477404     -1.038816740695167      0.836635330384610
C      -1.388386355330676      0.251404586160647      1.120815976587586
C      -2.391564925849554      0.507721680296027      2.215514113338278
C      -1.800552649897244      1.367143631899125      3.337037747116002
C      -0.575624687268344      0.713155554191322      3.945251504793374
C       0.159774261528471      1.093370756500337     -0.545160737198950
C      -0.826607054064966      1.315874304878641      0.407226751328025
H       2.206240566726194     -2.590249498433614     -4.527239068520251
C       0.616099159991110     -0.200459470679861     -0.822135964169221
N       0.021538754520223      1.594292056620382      4.993002255699821
C       1.558228618275550     -1.703709985335219     -2.662903694403163
C       1.695294319114289     -0.411790467172962     -1.849953692565079
C       2.236003145886711     -1.625197623140771     -4.014356549124142
