29

H       1.420926511231651      0.821690309008879      3.749286202061304
H       1.492359298725508      0.965474782717190     -1.212592305362839
C       0.336562832300600      0.689562655671893      1.245835384660838
H       0.016589743348126      0.448623812585068      4.590169707377479
C       0.406901528909811      0.771520322043894     -1.217172388684609
C       1.038196435066518     -1.362335640672760     -0.044031042219272
H      -1.557539926886900     -1.211632109283905     -0.998777866229153
H      -1.592306895214989     -1.310449505626252      0.760990069163962
H      -2.086641050780533      0.189171618535871     -0.045219761413902
H      -0.178778945594726      1.659368066210497      1.152844826923806
H      -1.203044805246276     -0.010051432641434      2.635846926384508
H       0.091376300019534      1.829076681820201      3.630986654167641
H      -0.089436554772991      1.746018562207625     -1.079210459749475
N       0.659766658385016      1.017902090735983     -3.657498184589282
H      -1.073591074848824      0.264760833577443     -2.747659278001417
N       0.387451147136589      0.836346663887560      3.703296181857873
C       0.085825007211052     -0.155104751939115     -0.022837829298011
C      -1.369672066896380     -0.640923963973589     -0.079654259142419
C      -0.109724658915154      0.032585928265682      2.542651026940208
C       0.010004032634945      0.215340746020836     -2.575894872249790
H       0.447400168669128      2.035167463610324     -3.571763909124484
H       1.695848993420559      0.908163651345014     -3.628991738261937
H       0.332164538809741      0.698756883905378     -4.590169707377479
H       0.330662502661432     -0.825109314035543     -2.722275783193860
H       2.086641050780533     -1.031629906801466      0.002964042051582
H       0.851652177946520     -2.035167463610324      0.804573170130025
H       0.903929778921115     -1.961014173333577     -0.956443826172488
H       1.416724995337892      0.906069726630548      1.309247176138358
H       0.285221243560469     -0.983485924271915      2.671872493922749
