41

H       0.354562245145510     -1.289949391656739     -2.633162691744840
H      -2.122903309914431      0.158605350889380      0.022144529763432
H       1.475783573163270      0.635653401598371      1.192031758798731
H       0.568791066067272     -2.289822164624145      1.045120310491434
H       2.122903309914431      1.226688801058231      6.000338146624188
H       0.893538779328621      2.382399939816240      5.973061257229244
H       0.532375616643009     -2.382399939816240     -0.722427670553285
H      -1.786151989970049     -1.258645368077116      1.031102089758319
H      -1.791258063214549     -1.411993599541422     -0.728736797951877
H       1.801278350775494      0.885726378753009      3.564079287447457
H      -0.062701461032109      1.482995674500394      1.094526047725989
H      -1.055096557139440      0.033088046267625      2.816844213998939
H       0.829798201938775      1.103600968627032      7.063262516031692
H      -0.889260017779108      0.143881924624505     -5.224334846171399
H       0.282335168213359      1.628776563564490     -3.592570214192643
H      -1.106387739922535     -0.296986539810296     -2.679271531264807
H      -0.114582931341168      1.362706799567797     -1.149914213377418
H       0.618042924584937     -0.523005945236250      5.309187845186294
H      -0.722899448440325      0.649421531976624      5.309177340540257
H       0.483914573353846     -0.992068566757656     -5.203469904163624
C       0.594904629391582      0.574580690483488     -3.688252551798427
C       0.782164966263158     -1.727558293870890      0.124613841906854
C       0.705851357805493      0.928662014013689      3.691616062333235
H       0.408179477318861      1.978013287150679      3.522319568813179
H       0.365735847634602     -1.017430672612624      2.832518185958234
C       0.193926176249001      0.058618597612357     -5.056899105332698
C      -0.017269718819670     -0.421527138236692      0.067759546407366
C       0.383739679729615      0.485216244773612      1.249535070267806
C      -0.011567787468069     -0.252650984688731     -2.557326207094556
C       0.350424118762884      0.524414381592983      5.108724671432915
C      -1.513200286344639     -0.747255199946288      0.099432377656345
C       0.036164822275835      0.020623519579909      2.661093727584142
C       0.352074632263842      0.363328359276422     -1.208413607278604
N       0.872903229624228      0.855455303147491     -6.119935806612840
N       1.090671309142552      1.363362491247032      6.094372643018465
H       1.909294235262081      0.736603607022436     -6.066109554557160
H       0.565980140667952      0.549661602282817     -7.063262516031693
H       1.865297676726334     -1.530585786650890      0.092700689721841
H       0.671300015911612      1.875415706817878     -6.028734220550728
H       1.442540188922253      0.540486448888268     -1.188644901249127
H       1.695185034342837      0.564255379368137     -3.603467849192707
