30

H       0.679173697322788     -0.901294080977614     -3.527959803918812
H      -0.346114898812086     -2.120701621570257      0.833551904003047
H       1.489396595053490     -1.998533234107700     -4.461332047005980
H       1.747777067931304     -0.365245426466763     -4.691142416700304
C       2.669840680518693      0.037078409719106     -2.059680483364066
C       0.940804443683755     -1.175047301164122     -0.607602437638176
C       2.732382042844101     -1.135756965951881     -3.012389184111332
C       1.581673874322622      0.001171836099213     -1.010655360046098
C       1.261265587942027      1.185336554228710     -0.336254580640000
C       0.450043554721156      1.167827635666463      0.792815361850590
H      -0.267118386818017     -0.947500086160661      3.152860437248796
H      -0.514169232258608      0.787754025880463      3.202962780847770
H      -2.533775277986261     -1.008061758925344      1.783494543730752
C       0.107112085490109     -1.184780365182079      0.507664494731033
H      -2.804613754121848      0.572381415869965      2.567962882581082
H      -2.223003778954038     -0.596521284554627      4.691142416700304
H      -3.650854600054728     -1.048098072721686      3.981815304072242
H      -2.267918064227001     -2.040691577982543      3.825317594949496
N       1.595827102250286     -1.095074508447975     -3.980748459524600
C      -0.088520873962631     -0.028328241400972      1.264838745067205
C      -0.736544508521571     -0.112548543682896      2.618624246994127
C      -2.234727040638533     -0.357304696784420      2.608781223493899
N      -2.617065534562072     -1.063685159527106      3.864387497150544
H       1.689477763647368      2.120701621570256     -0.687905163412207
H       1.118276518467052     -2.110318755242066     -1.135919100441551
H       3.643186701652006      0.077030648880204     -1.548550021433797
H       2.611110931163653      0.976172573043328     -2.624619304740708
H       3.650854600054728     -1.103537343159802     -3.600734074821297
H       2.687530961332127     -2.104256071908873     -2.510720679302119
H       0.244849777886343      2.084754437224233      1.342295928639711
