24

H      -1.761783972913731     -0.910952583094674      0.124215446217220
H      -2.359685983879327      0.615895665176392     -0.499757711791188
H      -0.639348457364029     -0.451633890932984     -3.400916774685368
H      -1.458440955743458      0.874339046395893      1.807170551685461
H      -0.491778375568286      1.816817193905989      0.655196370182122
H      -0.208994106813932      0.967111647917066     -1.714496503971823
C       0.477052032373699      0.034964822359236      1.360539399481434
C       0.772012678330867     -0.798873647113106     -0.956969581553633
H      -2.121674991312613     -0.490807017104688     -2.608428873010120
C       1.451446274233630     -0.086920432721805      0.200818207223413
N       1.112435916324371      0.725173384542111      2.528672145989587
H      -1.015792158927420     -1.754418081324734     -2.444845448501274
C      -0.476690719603033     -0.034634613793414     -1.360356854814712
C      -0.771957834622935      0.798769521779948      0.957096677847520
H       0.641859327824063      0.450313021892732      3.400916774685367
C      -1.451318648779202      0.086755792124515     -0.200729951176493
N      -1.111796678999761     -0.724310010678991     -2.529006030405156
H       1.458475761601319     -0.874409946072173     -1.807076864165372
H       1.013969182879512      1.754882782111856      2.445368599994433
H       2.122955769070131      0.493543049428959      2.606840601121663
H       1.762189495797815      0.910578863237047     -0.124397842749513
H       2.359685983879327     -0.616002393316398      0.500126134772110
H       0.491264759524569     -1.816817193905989     -0.654881326379161
H       0.209593076879978     -0.966576580091964      1.715224384288570
