23

H      -0.070557669027481     -1.386288135751159     -2.668455350229049
H      -1.342745786248349     -0.145966758788822     -2.691413502299183
H      -1.471457955088900     -0.247665316361871      0.001729482937709
C       0.242602706077964      0.232960197376932     -1.235627471178286
C       0.237515532745755      0.262285802002830      1.233731622842676
H      -0.060551290576390     -1.338007109719151      2.689897691463367
N       0.448226734063066      0.454492122221017      3.652407812879799
H      -0.204410439728226     -1.475728235282521      0.018934366299380
N       0.442552503083073      0.390747806970436     -3.657760015984133
H      -1.339238881442544     -0.104228360651705      2.702468416800677
C      -0.270495872165080     -0.316575981298386     -2.551556238436573
C      -0.382752635373103     -0.392576172759822      0.005351530665783
C      -0.266735659099975     -0.271042123308960      2.559627280051084
H       1.465750245460594      0.229280491298747     -3.584079524256850
H       0.268469096649213      1.413108050170600     -3.607479349685200
H       0.144107638575026      0.058900168423014     -4.584733621681434
H       0.271770833039749      1.475728235282521      3.588757054894447
H       0.152938816265712      0.135065520096214      4.584733621681435
H       1.327206402730148      0.127405524407266      1.197391799749788
H       0.051937017492172      1.344342146009923      1.197164293564711
H       1.471457955088900      0.294105455658749      3.577572001763581
H       0.068418193162495      1.317373797139944     -1.217696672096953
H       1.330789213055830      0.087324193399825     -1.198712308661160
