35

H       0.589427188065309     -1.303956863281254      4.974544947973025
H      -0.727128020469859     -2.148354583885142      5.601334728365077
H      -0.041680409981824     -1.400030176412059     -1.090862051648776
H      -0.792773081151259     -2.371628929565513      3.284403604078654
H      -2.154529429482464     -1.349345685787262      3.810326578775059
H       1.663058261422873      0.108475777637114     -2.084458345819280
H       0.909019951077410      1.495355787529132     -4.595291787987353
H       2.072244938313338      0.261024661420773     -4.468103916144051
H       0.376756661066064     -1.299290967536399     -3.714510172752328
H       0.467089011956590      1.403543984960532     -2.244864842957011
H      -0.994823294737373      0.693531124413626      3.061678737251881
H      -0.429330100568504     -1.644493690691040      1.145048791270001
H      -1.799793369776574     -0.538656251361676      1.052491198009164
H       1.807738853491502      0.536400072774070      1.595633358466752
H       2.154529429482464      0.773756607347716     -0.117345596942993
H       0.139418428202426      2.371628929565514     -0.345057329468871
H       1.917559364034656     -0.864501862020779      0.522729920664118
H      -0.207356005918125      2.157117576120092      1.378158254138538
H       0.543954507922563     -0.160371105665657      2.998480985311654
H      -0.839854276863630     -0.006779505526062     -3.865925634130859
H      -0.786759712183598     -0.486439336091248      5.568520195134941
H       0.844511220743258      0.146199017995670     -5.601334728365076
H      -1.467407183872266      1.818108184611303      0.170195815650961
H      -1.306258872797207     -0.189286555352682     -1.331517054313862
C      -1.063712950295244     -1.383819532212543      3.678884074033646
C      -0.530842077744624     -0.265682802036496      2.789767097666238
C      -0.230981222121168     -0.312278125750684     -1.112518593668198
C       0.591432351328423      0.308928028716409     -2.241044768050787
C       0.208967941663547     -0.217489484584544     -3.615284482145572
C      -0.727760933615320     -0.594435995443106      1.306098600007936
C       0.064344309110014      0.270209732190734      0.296037545509497
C      -0.390619042825342      1.735332760260222      0.379159564156797
C       1.567014188817638      0.172668608790255      0.589095414030600
N      -0.453429696000843     -1.320247912314081      5.046085079375357
N       1.062401713403260      0.465021708882309     -4.642917366540035
