32

H       0.363077569325763     -1.281740846405540      2.529178357395385
H       0.190311517940081      1.027601698514317      3.308463931158314
H      -1.358556646022948      0.367425533236514      3.258534854404545
H      -1.796843374470412      0.999305661952526      1.105881537452944
H      -0.416918582587192      2.127033800722922      1.106680550152047
H       1.861582943142491      1.289157960058846      0.395936199261420
H       0.727847586763263      1.848847930746695     -1.332384489194058
H       1.757640945489429      0.790336404769794      2.077662328136168
H       2.293996010107082     -0.349128476569073      0.877633885915608
H       0.315725289154330     -2.127033800722922      1.003292588042417
H      -1.173447930586857     -1.479778725824893      1.677673704646659
H       1.949070324752977     -0.476067687099484     -1.196093080717318
H       0.943652408787730     -1.941552563892121     -1.048664213194758
H      -0.460859374777776      1.213205255179691     -2.472847441998150
H      -1.116862776465678      2.009495815137473      3.253197391181708
H      -0.087329747332340     -1.268942326011615     -3.198191301136125
H       1.522853584932340     -1.610189959109454     -3.287877192872438
H       1.029684810055226     -0.036941906710373     -3.308463931158314
H      -1.765784777023290     -0.794299892217801     -2.018404257269652
H      -1.358949763196885     -1.864549243572712     -0.677882893881510
H      -0.999441538984498      1.915313220738907     -0.983578585905383
H      -2.293996010107082     -0.380688586840105     -0.407547458594515
C      -0.211813050837637      1.294427817647762     -1.408415384887844
C      -0.751997572825340      1.128858937169451      1.395273992614901
C       1.590466134764073      0.463822017819101      1.045707072141496
C      -0.154495726832030     -0.080347874604293     -0.738237944288353
C       0.965764902485450     -0.902838456225066     -1.384253532067837
C      -0.108887308656851     -1.278346836534784      1.539681247379536
C       0.149849154548517      0.039715468180761      0.808004406686908
C      -1.464698971580221     -0.820700929163841     -0.966710578338968
N      -0.749583976118708      1.114549864586285      2.891917409713336
N       0.840433183072666     -0.950758174282779     -2.872285938363713
