50

H      -0.812075540948880     -2.516373903518266      0.574573510650900
H       0.510130213482070     -4.115752178351800     -4.314545904364879
H      -0.181753085612882     -1.127038223027232     -4.574759125685414
N      -0.179571419987867     -3.390258241155773     -6.138744390514399
H       1.529762835813325     -2.865872598137728     -5.057324412523495
H       0.415365821230732     -3.982734916848342     -6.742837536319506
H       2.436448554116118     -1.281512294946486     -0.926149104552017
H      -1.270640915654027     -2.350249821935431     -3.909499965716275
H       0.642393412781440     -3.084574653351647     -0.219581917526099
H      -1.080507267438563     -3.867737513703851     -6.016685654937376
H       1.934482794931855      0.386924616302957     -1.060316910740353
H      -0.370266668843495     -2.505646152380631     -6.636366987546127
H      -1.289106447321441     -1.282177122352914     -1.663559009485001
H      -0.227511988461086      0.009904928057678     -2.192014910478465
H       0.752735425899842     -2.297481521170104      1.351773860604489
H       1.964614708799975      2.924458487421646      5.739363381369396
H      -0.730231627122146      2.342305202820720      0.413918129792830
H       1.435314163131964      1.296974237669624      4.058188179790244
H       1.203596008737917      0.153974896863994      2.044582826712118
H       0.921544179952542      1.841385509743679      0.092203177689740
H      -0.311526515407438      2.207382912573465      2.368467763528773
H      -1.463024185558734      1.136282050102056      3.137778491608277
H      -0.184311861066178     -0.823336266139270      2.480409595903495
H      -2.436448554116118      0.525921225720464      1.231739578965405
H      -0.335649846753213      1.594157479293253     -1.120840473792157
H       0.392477797279361      3.595543309959732      4.001630611875747
H       0.048420526269450      0.699051121450999      4.972211667372884
H       0.865289214945352      4.115752178351800      6.212170654735646
H      -2.347478999491352     -0.057016645401225     -0.420476061858009
H      -2.053325507267622     -1.149045091766198      0.939346472975860
H      -0.922138015277316      3.008408919633794      5.039108752575764
H       0.707855833936606      2.527704442895658      6.742837536319504
C       0.236091499834816     -2.276318699566708      0.388065237023595
C       1.843961360430280     -0.507254777854419     -0.442124334160502
C       0.121076518664707      2.842584613759453      4.749885855930126
C       0.358300202804656      1.439864181345223      4.226903179958509
C       0.107125857562431      0.129893213548661      2.027444686602511
C      -0.123570950235059      1.564609250645670     -0.048092737152635
C       0.456943278233770     -1.946640968600894     -2.678033554462767
C      -0.398099959661176      1.263164601028785      2.913721514889181
C       0.497483545089918     -3.151749419644633     -4.833906473664407
C      -0.390635069833458      0.176939499968054      0.556412392897917
C       0.369454285623598     -0.909958273701041     -0.305075969511943
C      -0.240458712926794     -0.982679865574775     -1.729849467681699
C      -1.888255385233536     -0.140395964208244      0.565994766393114
C      -0.215920659618834     -2.080613768954162     -4.034170446752690
N       0.965838829165629      3.119121979804900      5.945124060555797
H       0.485239948124913     -2.945394882037284     -2.232261266340235
H       1.500085286412275     -1.644401944670654     -2.836955889374450
H       2.319391408753519     -0.311196611594787      0.523459184542514
