18

H      -0.410575515469689     -1.913549367505999     -2.800933962907995
H       0.710346579483698     -0.678645269895586     -2.972117720299721
H      -0.193257397827356     -2.438494565884765     -0.487977754209836
H      -0.119913037508963     -1.632140681827962      1.852841063718705
H      -0.666507530423754      0.329686280224122      3.356366347420273
H       0.897661405506708      0.766642381412272      2.886773510148650
H      -0.320731813042745      1.908684242374582      2.795039847895172
H      -0.897661405506708     -0.365162168209311     -3.356366347420273
N      -0.120542689740442      0.898520224716325      2.662571228010950
H      -0.690819985846239      1.629612439641447     -1.866063887502086
H      -0.605181561661420      2.438494565884765      0.483181291642681
C      -0.544089065155319      1.371086458562440      0.269006350673583
C      -0.592416798427621      0.915448697336391     -1.048381553569218
N      -0.281335581711261     -0.884877461692807     -2.690874331147367
C      -0.352137044082596      0.445953513035283      1.290102861621533
C      -0.446207640351443     -0.445364188569073     -1.300206565266620
C      -0.309511441096459     -1.375648383101346     -0.273975744713042
C      -0.262903613849882     -0.919879778417002      1.040359132149600
