35

H      -0.564993241272833     -1.275664836689128      0.032494837905258
H       0.196082004193811     -0.228544569235658     -7.113388832491105
H       0.133635806313682     -1.386660822145864      5.089765972209507
H      -1.109286939334289     -0.129819752893609      5.302275897558538
H      -0.461763880208024     -1.372614062611252     -2.470984695159884
H      -0.354476130623639     -1.308908026734241      2.527622722363143
H      -0.188258688081229      1.501955456162700      1.293934890264644
N       0.523976049480071      0.155922918099812     -6.203847628496368
H       0.226153278064412      1.422085097744933      3.823002101088250
H      -1.765940285184727      0.017655158660901      0.041613640943124
H      -0.244357619276534      1.468047473191973     -1.315319803676589
N       0.745103227442346      0.292949948486551      6.191355191283854
H      -1.649776700581069     -0.082615473244291     -2.680196671744802
H       0.078478480912989      1.327538902375653     -3.846050786958745
H      -1.536626814948853     -0.016616303684826      2.751900575512579
H      -1.310838219975008     -0.238080386439526     -5.260384501387241
H      -0.072009880942955     -1.501955456162700     -5.061125051850663
C      -0.244799179372606     -0.415875795383064     -5.059068582949442
C       0.201250697423123      0.234496862802509     -3.761293590106001
C      -0.463620416597068     -0.211501497645012      2.581681744664655
C       0.352216555282888      0.328328095307424      3.753972741927944
C      -0.679495989335453     -0.177104572385510      0.020551506740709
C      -0.014514889153390      0.411659007690369      1.262466240097906
C      -0.047622869835020     -0.302169145995392      5.075950528676412
C      -0.571169943401155     -0.276559614106964     -2.547679676855130
C      -0.068802095978163      0.378869931785953     -1.263257023780378
H       1.545929371135005     -0.050891396768111     -6.122767402965412
H       0.421562573403021      1.193355448252741     -6.239580203684817
H       0.641769432894709      1.331029384111902      6.210234363978449
H       0.433678960461368     -0.073649880292669      7.113388832491104
H       1.765940285184726      0.083669105233736      6.097582210997931
H       1.425923881895349      0.147208523431126      3.573677606375798
H       1.079248226503456      0.287490258441677      1.167801176081209
H       1.028018481331127      0.256678306162659     -1.211720516878518
H       1.279985360255449      0.051109228073373     -3.616511798130164
