35

H      -0.563722918939089     -0.452114736803704     -5.174081792695566
H       0.974068345394933     -0.922881012690770     -6.947107556640088
H       2.268678156113117     -1.017643522235339     -5.881043469641478
H       1.037476523833041     -2.134278609281417     -5.792313648736983
H       0.802336441467478     -1.573460782102917     -3.366478359620125
H       0.175759600255859      1.394410374831834     -2.915295046966936
H       1.055745589460825      0.825885744802587      1.404097973272767
H       1.989519941649586     -0.270818366388816     -3.483075448199771
H       0.701953524563368      0.781532943204810     -5.326334118778660
H      -1.915988013296293      0.732870325713839      2.144780184400291
H       1.539672311620032      0.451010568039014     -1.065046352692567
H       0.349970826052474      0.468894920787244      6.145727661981658
H      -1.101869339536254      0.776403491564666      6.947107556640086
H      -0.974959903456539      0.063534330880658     -2.771914260866025
H       0.498702253646755     -0.961849005327255     -0.987721472034934
H      -0.376262745287388      1.902055930990696     -0.346803421699711
H      -0.481187532352066     -0.588675783122077      3.674634099844354
H      -0.877114956384356     -0.644007788711529      6.065268303921144
H      -2.268678156113117      0.803732087982357      4.799714678207414
H      -1.086725925940688      2.116698961106216      4.992535701971349
H      -1.436421435970741      0.495462900472974     -0.342761247170333
H       0.644957040171795      0.751012194170835      3.820832778640744
H       0.060431337935087     -0.615882174361811      1.337828518849033
H      -0.859211428111583      2.134278609281417      2.317595989988869
C       0.500135225773101      0.117397710378553     -1.201725307055758
C       0.922995271747538     -0.506939550549752     -3.604413361733999
C       0.084766276049821      0.331726108103250     -2.647527339516942
C      -0.395293622890938      0.813451279560498     -0.186607349562451
C       0.025789170620696      0.478870641319832      1.234322163405926
C      -0.875442600922370      1.034413987258002      2.328490390769966
C      -0.415563435709301      0.508584426243281      3.676996210042175
C       0.503147748577677     -0.252447716215950     -5.034496542003108
C      -1.199935268775519      1.035040426260805      4.860463172481701
N      -0.678994269594464      0.375011734165860      6.091433767037287
N       1.241376734454370     -1.133389469091039     -5.975854942156589
