52

H       1.515340372226074      5.487176635131667      7.749945440888429
H       6.600976615635711      3.897094941095291      4.604123119508897
H       0.303698599566046      6.334306065536156     13.349916037708406
H       1.698577097489823      6.789542618344823     12.528140309005678
H       0.608327389292202      7.951198976342456     12.987495934316806
H       7.467366205999181      7.879984274628309     10.869689113266233
H       6.589005062981677      6.485361500462445     11.520308988300473
H       6.813742996431379      5.147343072608741      6.611228839148811
H       1.008002149460551      5.004188790540890     10.920509815022577
H       6.677051082537027      4.974130585681601      9.423905362092487
H       7.108808971190204      6.498474006925864      8.650426836530324
H       0.353628077598989      3.791396942500722      3.705330470419626
H       1.253957190806134      3.962652358015879      8.592981860238071
H       6.931730552799086      3.488572323757191      7.193279256714006
H       1.278290897933999      4.891967815177027      5.395794064019163
H       1.650601480297695      6.417004126977348     10.085641155125293
H       1.520320965449217      3.236552410927602      5.967592486179828
H       7.509911502504787      2.497190794778856      4.563850093867440
C       7.585593201519311      6.876571935374244     11.290873676165571
C       0.733847488425758      4.807804447061373      8.121129003518687
C       7.525586324763953      4.365139466489379      6.901672370616601
C       0.763066918729248      3.994478583340200      5.746578469545821
C       0.719563156178362      5.919882780586240     10.390012447396700
C       7.530889575863841      5.596524763396859      9.116955148727365
N       0.680726727122131      6.978909481746221     12.634707362974851
N       7.574361529018853      3.536494830431472      4.557736895490463
H       3.411257534619103      1.591368617117591      4.998566098482717
H       4.264665650331042      6.325687370990593      5.261003687260141
H       3.971203703971113      4.316964542128892     12.249718542275314
H       2.744533147451138      8.639481352107044      8.891539872209655
H       3.943574779207490      7.641579721259501      4.279727351782719
H       5.328052384406555      7.603997145828167      5.213875262424092
H       2.599968035639101      7.615554720607419      6.387292037481978
H       4.467955964728382      7.077846675991145      7.992007500125384
H       5.393041640749447      8.441580603241340      7.364981138254062
H       3.536239942293570      2.492570580425623      7.195315458369711
H       2.903849434404647      2.214350269998708     10.165263981920415
H       4.785439949417715      8.222857409100525     10.292732774627664
H       5.542694408859632      2.105536561671945      8.616296964632758
H       3.790583923330851      3.613723854458260      9.558586455549161
H       5.682565308880002      3.092998642711398     11.136440503109917
H       4.917225941126964      9.084845566758670     12.500526787983217
H       4.190107313568659      0.983678397613276      0.185150275482051
H       2.973274541343202      2.982046662693105     12.343701579089219
C       4.374613075277915      8.091868918321483      7.578272218847783
C       3.585843257033089      8.078881807978604      6.284745238654619
C       4.711166697939960      2.599315632881260     11.235032060639769
C       3.911249389813302      2.593106764280315      9.948474823803870
C       3.702333838599275      1.514907132380402      7.667822101887321
C       4.565747573186311      1.693424321375900      8.908396416477633
N       4.316788731426805      7.361946790532398      5.199274732383330
N       3.967980760010134      3.280039488152165     12.333441380473358
