36

H       3.866341631356715      6.649583406435868      3.303672598559683
H       4.987263726310103      7.884487504046281      3.132488841167957
H       4.083659748999048      6.124638208057103      5.616628807257842
H       4.157004109317441      6.930992092113907      7.957447625186385
H       3.589821286775750      0.463644325805780      9.384587559999114
H       3.379255741319696      8.197970605732555      2.748240214047405
H       3.565508831353265      1.763570485223103      4.162157325076753
H       3.651147255538084      2.572452611466422      6.511402504221519
H       5.153990222706212      0.900600426993929      8.914994722727490
H       3.935597004156759      2.042642287956239      8.823261060474012
C       3.712239752044186      1.505044504144098      6.297227563252421
C       3.663912018771883      1.049406742918050      4.979839659009621
C       3.830709506474961      8.117768585372797      4.804399996201058
C       3.967405705729946      7.187484390840523      5.830630816754636
C       4.014013532976523      7.643252995524866      7.144965693617278
C       3.904191773116909      0.579911558616943      7.318324074200372
N       3.995581565115144      7.678255312249061      3.413732230320311
N       4.135786127459062      1.032478270297982      8.690792440589789
H       0.757115136611808      4.766036795488418      9.273319038493822
H       0.407339675543624      1.993179731850277      5.454668135084377
H       0.472516294489824      4.045835083034818      2.567003410501139
H       7.886890492429614      2.512403791537492      3.245429127287109
H       6.735447443104093      3.719969936665628      3.132457598008598
H       7.792415801574581      6.076142748857484      4.150226318754301
H       7.904982082485271      6.891700297240947      6.491094608336410
H       0.534844315951687      2.812247672188645      7.794693109369551
H       7.011743272698043      5.190824149118593      8.989136975796281
H       0.361310963529125      6.339196881694814      8.739070939375964
C       0.303283735671726      4.886016344091920      7.224218820151401
C       0.164521679157075      5.814528883811041      6.196282930257463
C       0.095918374976690      5.353926182984964      4.884584835723658
C       0.361046121000263      3.062576842048035      5.661832431024545
C       0.165384968850272      3.985810857635981      4.640586043074552
C       0.432712875497859      3.523698761909782      6.975588099923850
N       7.747893596241396      3.537673704185583      3.354992185051866
N       0.165465492130148      5.326422740530725      8.614807396322387
