48

H       1.844486472660037      2.999386553746715      6.328832757460036
H       0.632577948473601      6.039252616366594     10.824212359095297
H       7.595676865032592      4.292196051014804     10.779297275200209
H       0.247807848050936      3.083221495090591     10.798471788862992
H       8.149225734046643      3.659673238058426      2.989379728375467
H       7.097450853651440      3.768954682807840      4.279752109644695
H       8.326633845692394      2.611678367442069      4.274805631207916
H       0.065720429609459      5.569094963843749      4.338498059874676
H       1.367552322388056      4.353822926290648      4.323818902669606
H       7.335123350631252      5.908717056201265      6.321566619550431
H       7.117638671154300      5.646999302950478      8.773685118809812
H       0.812344056615143      4.993975230285366     12.111434168978542
H       1.864164287543412      4.884836174700098     10.820965468443108
H       1.627159451254675      2.737914383110411      8.780964010147217
C       0.035959617223992      4.182501134417404      8.951068766539374
C      -0.052906513800813      4.071866685045824     10.442484010323536
C       7.860389393613341      5.069208654582352      8.229915594521955
C       0.983118319076686      3.433462848671501      8.248887928233495
C       1.101845581975583      3.577298969097143      6.872567704417989
C       0.273339204309600      4.466965781282324      6.184544474927581
C       7.979193504203600      5.213083950428370      6.853664200026427
C       0.363310666646693      4.579114190129626      4.693426243930547
N       0.874777438027121      5.062879179861612     11.086919181441804
N       8.086476717246116      3.589027897457727      4.013781334398345
H       4.538688091995990      1.230715487084082     10.796850629599463
H       5.707464042471037      0.049773801756881      4.315176455277260
H       2.822070678436768      7.263331149614258      8.760303419097529
H       2.775112041340525      0.589360188008832      4.303131927063941
H       3.991623201919892      1.760022811427506      4.298231890331109
H       3.053281019283018      7.035618992862115      6.306071640729066
H       3.823551275694796      0.713412718952565      3.011206247440663
H       5.140206508000129      7.945958779857635     12.084875217861601
H       4.969868063943402      6.900477593127261     10.797374652932195
H       6.189400148196505      8.067948004576296     10.793308757023382
H       3.254806459662175     -0.003519320360860     10.792826540474330
H       5.913368661676643      1.627765396607546      8.790227817365658
H       4.430986684344281      7.431106260498805      4.300076890552218
H       6.144386404869723      1.400160993233794      6.336067338548010
C       4.709515230657430      8.422649210981039      4.666021687327877
C       4.611358691141533      8.517761758021813      6.157865003190575
C       5.287544679797786      0.923471069537001      8.247944133927833
C       4.355297854701611      0.145469302679302      8.938513067465511
C       3.552738453599625      7.864803583042301      8.225908370783078
C       3.679047289265717      7.739828351351342      6.848437060027414
C       4.257290834763344      0.240113160275609     10.430416347075173
C       5.413762334092969      0.798536603740891      6.870462724705130
N       3.761699003252838      0.780527527066968      4.035919431942350
N       5.202219640532694      7.879155537327136     11.060173249884173
