100

H       4.076222805855918      7.943788783426049      9.600722215013056
H       3.814663048394213      0.552109812994227      3.580573374248468
H       2.590530080571735      0.550035163412977      4.706854332504901
H       4.348972659659863      7.272423615971583      5.179074677044788
H       7.921966818756499      7.976422788275973     12.190876670066201
H       6.601424545403249      7.017414976412166     12.832814148056494
H       5.554429363509456      2.328506822922658     10.840298030901479
H       5.801563284706489      2.322247288574897     12.584909965646224
H       7.182234446409959      2.133848247852819     11.503818772516295
H       4.387008516648875      0.403810916091203     13.229713200660065
H       4.245647604462730      7.347023983888558     12.073521440241555
H       3.756920653314403      0.632898981241965     11.604061188492690
H       8.935217575440028      7.867118122895612     14.585764619923308
H       8.282175283263568      1.153942694139890     16.499437197057585
H       6.830070024068120      0.189623024152437     16.820532620221439
H       8.508039253957358      7.892857294911358     18.250948772027677
H       8.365181844982422      6.608428922710847     17.175134931540775
H       9.664059691693240      7.674739430034085     17.081789048025691
H       6.286781047528293      6.052336778305725      9.289251065293696
H       7.148894118051281      6.168744230876622     10.818110605398108
H       5.383286261415895      6.071049039040055     10.807983375097848
H       7.797319513939681      7.933331750989377      8.730811255232958
H       7.390685482666720      1.244573742775259      9.316224141578196
H       8.300237437625695      0.175470966856061     10.391939077506999
H       4.846728142364576      1.153970698900246      9.348655971426046
H       5.136486276166494      6.907061820104080      7.651423435446832
H       6.179315504649067     -0.030650209305001      7.501326919825772
H       3.715594035065638      1.794727120782271      4.695618218969734
H       5.506873202064906      0.281032853342442      5.242001443171393
H       6.059681534004867      0.598784704501206     14.510019044793589
H       7.508503019739808      1.419999100937667     13.936778420915259
H       7.513893476706031      6.895132117930411     14.956107844404473
H       3.138141249750498     -0.011667626177332      7.181931797954781
H       4.179289317763725      1.412616254747256      7.078712923031115
C       4.476837088779174      0.005024815654424      5.487305834856279
C       4.156058968479127      0.322713539886122      6.935735655179359
C       5.194809553867784      7.997586988558815      7.771238730253503
C       7.481424345653366      0.211417430755543      9.668079447083519
C       6.250091844817335      6.494534908448449     10.289327387490708
C       7.853100547825322      0.150427633494013     16.432186846386877
C       7.895322254596477      7.925337642120405     14.940333093098680
C       4.997448643831120      0.066220082218158      9.315960799558724
C       6.919317788475603      8.049639815253055     12.633333319349273
C       7.046909307453206      0.432250035744514     14.059657722118446
C       6.170410714067948      8.026423814148439     10.186146390438790
C       4.495714947431220      0.081975482742876     12.190519389391659
C       5.925520573951353      0.343557121942226     11.696289511686750
C       6.132381677084974      1.865794721365716     11.646475156325524
N       3.595645296250454      0.771844403362178      4.562061194995484
N       8.644833808531976      7.602795782615097     17.271307335821838
H       3.937018434663306      4.754310427822007      9.559355030915324
H       3.182899828630899      4.555460423941135      7.984887859440802
H       4.210690823470581      5.903451363800659     16.496976338218516
H       5.438111671626069      4.740798251758349     16.496085839589206
H       4.228687983649541      4.666283354028423     17.623537762375008
H       3.857002449608037      3.007452500012299     15.925944452773257
H       2.550176892186146      4.198745353098619     16.031549790257266
H       4.828810492089890      4.211456884326601     13.965656674229985
H       3.668783131971433      5.526910343156437     14.178157464053704
H      10.508863153136486      3.931525304353504     14.888726917004865
H       2.971449284095151      5.292724124214972     11.947638533476827
H       3.749522968354250      3.789128341264538     11.478526370388911
H       8.203759391673103      4.410023254256441     12.166032295494713
H       3.383696267802576      3.153836295403464      9.033251080252962
H       8.798126765542381      3.784247509499536     13.693106705027276
H       2.319416890578370      1.889620355710598     10.391564057547892
H       7.912846177615293      5.575251442847143      6.166749923808238
H       1.390559488760637      4.660277199893732      6.776601615947950
H       8.888762487034619      5.697627710193638      8.591580538406573
H       9.208571837184138      5.426647968229093     13.207297261257224
H      10.221710336223653      1.892999517473732     13.036608024799950
H       2.941904847679023      2.643886773909697     13.455209055162596
H       9.281649671930859      2.040486980786392     11.557915166922356
H       9.292236839766357      6.342141646693999     11.012621226686566
H       1.869003455048968      6.499502589236220      8.752462333261779
H       9.670712553256262      2.892099003461189      9.532483262536005
H       2.249653119532161      6.474473804624854     10.471305863135257
H       6.997073605494214      4.114934093579285      5.745792345361806
H       1.252951809968744      4.298338219315423      4.595225164096094
H       7.110690477846854      4.093471194476903      8.141079124942086
H       8.923597786024798      4.352453441711219      4.376909532517868
H       8.439208118323895      3.891329983376641     10.279906690490579
H       9.056659123398992      2.973928051326786      5.309253059028324
H       8.247998793304738      2.877714709095801      7.591343301570898
C       9.405560886563993      3.933516319314720      9.759497522015200
C       3.144702953930518      4.223054894517381      9.025493744002342
C       1.761900600311395      4.510784946608792      9.627032938704767
C       9.177392226220089      4.651750537348376      8.431134948355091
C       8.073372347141033      3.961819055628374      7.630115085293399
C       3.592765285627776      4.050934346420501     15.731079736716820
C       1.599114181340883      6.037324833109581      9.707424049121423
C       7.914718032924701      4.481352615900417      6.213724654034685
C      10.214902009440081      2.341837960575422     12.038275907484516
C      10.333845174350618      3.870924505585009     12.142757585808784
C       9.068415434088429      4.405586826239465     12.836046629340208
C       2.781315794714919      3.728036811651972     13.391273734963701
C       3.799757840113563      4.440260302490874     14.278760472673930
C       2.844381475141259      4.201716160280734     11.938587510828244
N       4.421079006051246      4.896452140781313     16.638654619653362
N       9.041152676367759      4.008808520575798      5.344359230259757
