32

H       6.043061299158131      1.718910002400443     18.814490222411791
H      -1.405005608168417      3.748314314773898     20.704780892582459
H      -0.227928599356520      3.353646832353667     19.426200843035069
H      -1.400825710334397      4.684629963720338     19.179927331283956
H       6.044717570042977      2.617326231830627     17.433744047760470
H       4.937292554928703      2.971897621971792     18.633859834731926
C      -1.239326369170608      3.704776563166794     19.629565945089485
N       5.913143346417351      2.678896367534516     18.450666575110091
H      -0.016648553301916      4.400832994873946      0.137972261945728
H      -0.127655895132290      3.245845284975404     23.858666967460053
H       0.004721796300222      4.389970877804198     25.078983244968025
H      -1.294793989792148      4.422102557456396     24.015533010832947
H       6.008573389201644      2.257969146561781     24.301770187009456
H       1.229362027217916      3.127503784811997     -0.023617504010188
C      -1.423705465491742      2.935385968716762     25.469750079653743
N      -0.655742814931772      3.807354533811804     24.542041680977949
H       4.505926451675514      7.524064772620097     -0.323535514653287
H       1.904299707710733      6.883561929072008     23.370853457607165
H       3.236646529231665      0.062562776400704     23.350359266697581
H       2.025849524865497      0.553504695464873     24.360978254271480
H       5.915430225406764      0.802208396286104     -0.359744194206508
H       3.891388613310656      6.209768788856507     24.616586976598537
C       3.335789706808773     -0.812931846547838     25.253131792647498
N       2.589583854925711     -0.261212888631529     24.089647754104824
H       1.037821534216486     -0.508580932349940     19.025501227722959
H       2.156855746108229      0.879078706303207     19.211240210342684
H       2.902769383977819      5.858678898811200     18.796811359139760
H       3.075417374578051      6.991121406756175     17.578572050690372
H       1.965074767067192     -0.298146351165076     20.537201332123580
H       3.944246561324900      7.153837007957217     18.963596607084682
C       1.977485897034651     -0.167818337791429     19.457900509403881
N       3.022628811290973      6.867978565686886     18.598438346743134
