70

H       0.488509832619798      2.877383148936584      4.038179668012953
H       1.836285752145554      4.627148359842524      3.089696536289982
H       0.572059968659382      5.732657055127514      3.148394158347299
H       0.464537510757065      4.387273481318025      2.142721399230161
H       0.167585238482300      5.520615104640667      5.577840871795831
H       7.232569879276154      3.266091432012518      6.200340040027429
H       6.937975312118603      4.505074025787782     10.326552380322461
H       1.648569004426344      4.555963894290536      5.578655032350167
H       7.321396807837074      3.929257544911353      3.780614865836539
H       6.066208502220820      4.798069705870245      7.727341183312520
H       7.015973529011086      5.945636420798283      8.702889994259749
H       1.440495017809561      5.902416947828018      7.526155545038679
H       7.098782662995592      6.009924895201817      6.936523091344938
H       0.612694364214149      2.606935808412778      9.115567385210207
H       2.139079456459974      4.462793930017741      8.304116646709510
H       1.222253728099052      5.648588188998438      9.255802267863192
H       7.115651397987119      2.668760672282492      8.625620618518228
H       0.423971744163911      4.413664061607291     10.871758923030935
H       6.688072068307556      2.054191216582750     10.981175929226557
H       6.900526857950747      2.538096813005796     13.316695807218300
H       0.150001879997258      2.086962057239717     11.699693776871504
H       6.244390293179559      3.825139981932677     12.497801600487506
H       7.863486782757525      3.890854460707843     13.009293142104051
H       0.621661422272006      2.723659843143197      6.747217374765006
C       7.030317104905567      5.326333024316192      7.795404031783007
C       0.550791852875433      4.489224602765559      5.514519379589004
C       0.010074862837809      3.637298907077644      6.664839503980992
C       7.520086224838822      2.694444474026314     11.299848388115297
C       7.791275776464857      3.811298802109879     10.310386281589995
C       1.267096035207309      5.132584910502251      8.288870966570476
C       7.996680889152551      3.267915804011480      8.899217488951081
C       0.163531692504554      3.919948801621120      4.163478840934996
C      -0.037290594283159      4.366860411686075      8.029906032744723
N       7.120093685542832      3.275144975298180     12.618620159933579
N       0.798766719611065      4.718165744921767      3.069092395967449
H       4.589108532342583      7.256375073604226     12.262813079448504
H       3.272553323807415      6.411977353000338     12.889602859840556
H       3.958000934295450      7.160301760473421      6.197406079826702
H       3.206908263126016      6.188703007319967     10.572671735554131
H       1.845151914794810      7.210986251098219     11.098594710250538
H       5.682352203329981      0.446716125913748      5.434757603967933
H       4.928313892984518      1.833596135805766      2.923924161799860
H       6.091538880220446      0.599265009697410      3.051112033643161
H       4.376438005343338      7.261040969349080      3.573757958723150
H       4.486382953863698      1.741784333237166      5.274351106830201
H       3.024470647169735      1.031771472690260     10.580894687039091
H       3.570351243708770      6.915838246194440      8.433316922745480
H       2.219500572130535     -0.200415903085043      8.571707147796376
H       5.827032795398610      0.874640421050707      9.114849308253962
H       6.173823371389572      1.111996955624350      7.401870352844220
H       4.158712370109534      2.709869277842147      7.174158620318341
H       5.917240708311930      7.695830074864700      7.810998052139596
H       3.811937935988982      2.495357924396727      8.897374203925750
H       4.563248449829671      0.177869242610978     10.517696935098865
H       3.179439665043478      0.331460842750572      3.653290315656354
H       3.232534229723510     -0.148198987814612     13.087736144922154
H       4.863805162650366      0.484439366272303      1.917881221422137
H       2.551886758034842      2.156348532887935      7.689411765438173
H       2.713035069109901      0.148953792923952      6.187698895473351
C       2.935968393982030      7.176512404672937     10.967152205509123
C       3.488451864162484      0.072557546240140     10.308983047453449
C       3.788312719785941      0.025962222525950      6.406697356119015
C       4.610726293235532      0.647168376993041      5.278171181736425
C       4.228261883570655      0.120750863692091      3.903931467641641
C       3.271920410661954      7.965895941442374      8.594366731483415
C       4.083638251017122      0.608450080467368      7.815253495296711
C       3.628674899081767      2.073573108536857      7.898375513944010
C       5.586308130724746      0.510908957066887      8.108311363817812
N       3.546251648276431      7.240084024571400     12.334353210850836
N       5.081695655310368      0.803262057158942      2.876298583247178
