32

H       5.831710786978963      8.434234998087945     24.110851025992435
H       4.077804562851067      1.027961352997242     23.146198256827645
H       4.037663143851258      1.112200961762376     24.807062432467433
H       2.892182936374219      0.207650668748432     23.995063872199790
H       4.653403609968996      7.446551350239437     23.195746805354066
H       4.580480378752050      7.501284447688382     24.985243010391311
C       4.807730718344017      8.062220895137802     24.080125413793915
N       3.887482121680623      0.486110247504637     24.003554329282824
H       2.474755806401984      0.119242520046864     17.797830197081350
H       4.339748428511895      7.645405319009104     18.695734129047469
H       4.352376155412385      7.580118242384256     17.036334009039603
H       3.604424545448579      1.184121988077375     18.685462280608778
H       3.630250751382061      1.144625351842399     16.893815633334814
H       5.446134518178308      8.554361831016555     17.834104917172784
C       3.469066340486469      0.564159326086056     17.800691412353746
N       4.472012473164561      8.208187040181834     17.842181164597360
H       6.780199829776881      4.249723308924373     17.794280118017319
H       0.037193502722415      5.465705549594614     18.704168297703390
H       0.049179234982775      5.532729831495202     17.044855047790257
H       1.142470911794383      4.556791272753897     17.841117294363727
H       7.909274433137688      3.183128463304728     18.680586163066565
H       7.934543920396705      3.224207266863695     16.888964095577279
C       7.774138231344701      3.803995171972242     17.796416980639815
N       0.168622712012676      4.903708545135709     17.849962498438718
H       1.528653328727329      4.682095527823460     24.118048139616093
H       8.383550316285200      3.344855442923160     23.141462860861601
H       8.342606381252086      3.261061927560454     24.802370747508341
H       7.198185959537629      4.166227500468279     23.989612807772556
H       0.351529639156984      5.670464744038489     23.202163349062182
H       0.277698772542606      5.616144150219471     24.991620568940835
C       0.504963264238193      5.054848123041511     24.086732358642426
N       8.193258865958905      3.887037055496770     23.998621106806304
