32

H       6.633602714063253      3.930642817199383     16.671048899445896
H       0.668096259051852      4.402338892552734     18.247669946654973
H       0.489305052912652      5.662969955298350     16.999832557846066
H       7.770852752873361      2.716322100855254     16.519446029164897
H       7.638183770046425      3.900008647386162     15.355862571777063
H       1.727295693403817      4.381287185539692     16.804200170793784
C       0.732075634620598      4.615546172274994     17.182288316068203
N       7.603584635624296      3.726016089999908     16.368311244886815
H       2.977492999319792      1.159135890788951     22.543562700314375
H       4.861936425585754      0.560110768015695     21.163655210358911
H       5.166990168422435      7.177304116104428     22.110976827746182
H       3.746994359027526      7.232032754722990     21.233939976020412
H       3.300177351852725      7.417668384818901      0.143494538367827
H       4.514919201062370      0.814840817813158      0.106933401122897
C       3.742393622134903      0.489861423118497     22.934610315947690
N       4.406535383629104      7.791054255697175     21.800895357890322
H       0.053574154904354      5.293943381072744     21.571270551985808
H       1.070585942183167      5.237225030195817     22.898668487493243
H       1.267857513960504      4.160480621194704     21.625793311891805
H       6.869295344986670      3.996953207980221     -0.032966898268431
H       6.993955636645418      3.094727392942576     22.016596600523908
H       0.309542859379463      2.817645550155477      0.084956416614050
C       7.526479182028038      3.667129297430199     22.776027334779851
N       0.576840973623368      4.666662733311468     22.197275105248071
H       3.849388022687211      7.015862759396975     17.245128411523730
H       5.473423943249827      0.732141811609084     16.486701881355955
H       4.212589722427302      0.619186698137255     15.395813468598678
H       3.896835527487527      0.481079865594541     18.336178454925765
H       2.592287229450933      0.302019986390181     17.122798590762095
H       4.312528647779260      1.921056597227681     16.441032101580447
C       3.614319629864726      8.074772602574091     17.349562531131628
N       4.460088314904038      0.900664553205378     16.354192128332119
