64

H       0.213825855518618      2.859386627046391      7.696767821038544
H       1.425556374454294      5.568146351765744      4.316687316428448
H       8.184450953571703      5.847508627046824      4.020430974771184
H       1.966108305698703      2.971290163522631      5.015746623374058
H       6.396354444333620      4.590877847234117      5.186615542326813
H       0.672228012070984      2.075873849642224      5.851367882012954
H       1.552462591198662      3.841207430285649      2.773224746742975
H       6.715512734675816      2.934649197504740      5.730759647982348
H       6.877130762001487      3.346160400754880      4.031172617676425
H       0.620451103912424      2.227396818964864      4.115469264105132
H       0.948741887931115      5.196837392172158      2.056413031869092
H       7.989556466740373      3.721679227620316      9.834602632140065
H       2.279694848633562      3.920187600311372      7.198086336173040
H       2.039699857492221      5.606379427025006      7.658678106906184
H       2.433091550887756      5.187694047980057      5.994191488413528
H       8.331893825953701      6.615657617689580      7.696686849138078
H       7.051216255054237      6.047792508324337      6.615149771418249
H       8.523738080368187      6.822148812514922      5.980541211155151
H       8.371191210146119      3.909279824364108      2.447007729346969
H       7.129064239994608      3.726758565875317      7.650090015368355
H       0.909904401751294      4.560402052216658      9.316149352745461
H       7.872775741249060      5.288135023032661      9.292972601122438
C       0.339297550367288      4.746799841085762      6.580622145711519
C       0.888667864815762      2.772153290272650      5.030723817483680
C       7.051639187226578      3.723379067263623      5.049857338507576
C       8.210757029541819      3.847627537633614      7.761282831352393
C       8.137247050133674      6.124806969177105      6.734433592832374
C       8.535711941047291      4.060119563637084      5.259473942752011
C       0.477130199869511      5.072534040519407      4.082104797762703
C       1.847105157128788      4.870743718085186      6.865188362406098
N       0.706874577701599      4.445213363567068      2.740267020398825
N       8.389560186601651      4.401739819446342      9.145907820975387
H       2.853612970072989      8.159359931571212      7.701515690411144
H       4.259885676956337      2.461710463628954      5.980562854305233
H       4.355782014477008      7.194759580344647      7.709733763663910
H       5.252508922871774      8.705369893958162      9.357576397631009
H       3.848556099932367      0.915115459169158      9.333012772880608
H       3.783638103510884      8.048689811185234      9.803754939954398
H       6.566656037564461      0.824634462035067      5.942475957904360
H       6.271663417545445      1.190950560515512      7.639701645517036
H       6.483390941171126      8.246681036237751      7.114154188378071
H       2.791371705866582      1.716257467033141      6.668768146961386
H       4.126718759084666      2.238712769524519      7.701466822777180
H       3.928887359437446      8.033438631632123      2.602052969377218
H       4.382924725607534      0.779566429906138      2.026431629127086
H       5.567515178132109      8.450870361504752      2.617554218381960
H       3.692821037631150      1.462806594184436      4.048519613801149
H       6.063043063517677      7.339116593513739      4.977163763111092
H       4.686742558259936      6.595857044948463      4.139553629044134
H       4.818218856796396      6.427639493172235      5.869289931410687
H       2.022195297576682      0.201721846238459      5.332893803494119
H       2.393642059149498      7.265838214306500      5.808144677734666
H       2.426734953236932      7.724357984410753      4.109095605097437
H       5.432582229960951      1.222969353455055      4.279728155305451
C       4.989065920056579      7.135003612709948      5.046866236377515
C       6.033773896733818      0.479501868201721      6.837166106844126
C       4.514848233430413      0.373743063488595      6.632129512993674
C       3.882415840013458      1.765671419650489      6.741447174870792
C       3.946256275353038      8.210811009793083      7.744613870304807
C       4.167468637206054      8.417031740604004      5.240702472421498
C       2.673922974851648      8.071801356796016      5.124358345301870
C       4.479090298997092      0.706090598639400      4.125747265207710
N       4.595319246108724      0.078732100482806      2.762870287690672
N       4.245518123530069      8.703932637946538      9.132137763943204
