16

H       3.842919446942821      0.395576290730220     15.461442533058682
H       5.118733749724444      8.035864131270932     15.350369209406541
H       5.561653902989487      1.280020169969748     13.982237383383657
H       4.026295303756480      0.978947268386551     13.109414686121880
H       3.694729072045427      7.738526834926765     14.528975693989841
H       5.389823688064797      8.541131968693307     12.966108754751282
C       4.866967324905748      0.510334767019833     13.632465105299778
N       4.349277064845759      8.487519244039424     14.808918251223968
H       0.445074206451998      4.949867243715601     12.593203888633552
H       7.431144117126549      4.762532875821674     13.673534484952928
H       1.760893894038477      5.028094976905805     14.635149647237286
H       8.820785057440096      4.852416330477900     15.652215814509626
H       0.616122788865628      6.243674247544401     14.633203567311302
H       8.671940889181066      3.466399923725396     13.661806359796294
C       8.502124454539830      4.545805667049941     13.609642073703812
N       0.729047385108628      5.204808637235668     14.669074321944496
