88

H       0.141672543114722      1.831593000999344      8.436384201138079
H       0.479882642509478      2.841943160935105      3.108479999765427
H       7.984692604584580      4.023807954666746      2.641388593024157
H       0.947498214201522      4.297405705664333      2.371227619874531
H       0.797806247517205      5.469295854347930      4.489374646704403
H       7.651280387273655      3.764532734612107      4.975246941392238
H       0.318551313533382      2.620882576068863      5.552808784880426
H       1.476452666353838      3.850102507836982      7.290157360902807
H       0.590958338250233      5.332942352191343      6.950551204116219
H       7.534410492581018      1.883499865816130      6.706734145729280
H       6.201563291991490      3.950004295249133      6.425441182634865
H       2.004041471598411      4.158390043014010      4.525860041359524
H       5.954760277475112      4.438704888972609      8.101562836806869
H       6.517045067742815      3.754582004066867      9.888787454061060
H       7.008195679664750      1.976678265458363      8.385822292048177
H       5.716436394259170      3.592892938982053     12.163958154196436
H       7.412968696053611      5.389483832900955     11.543910905603576
H       0.140531861113650      4.365066946888574     12.394546775391767
H       7.801294607246687      2.617578017518544     10.288259349271808
H       1.618145377694550      4.251788538116602     10.861456284464957
H       1.486659148405756      2.906177432211308      9.727272749777104
H       0.321826050762047      6.410726898452442      8.736141266750549
H       0.307651474001282      6.317803029609842     10.497885601573888
H       7.357078130968198      6.205666720866140      9.187361299336251
H       2.075826893061798      4.486224016935647      9.178975493891006
H       7.618787038781887      4.432511310169953     14.276665754902782
H       7.064201154659811      2.591950142628718     12.760515599172013
H       6.316037903347000      5.315271168651652     13.704164274152149
H       6.060673735076408      3.854499109145027     14.519481072613580
H       6.823732826796362      5.508162657005824      6.986387415521573
C       7.572996408304922      3.691713463800771     10.197763849244927
C      -0.183399682504465      5.942751687035756      9.590781420220962
C      -0.097550175408998      4.407274311595324      9.522496094887472
C       1.346889855970173      3.989811085043569      9.830961332869737
C       7.686217631928616      4.325147751772903     11.584064314521783
C       6.745863671668820      3.619565189982546     12.544398498723762
C       0.927207571507045      4.377035051603181      4.489709457987228
C       8.011640212162932      3.789128792670788      7.668124861119190
C       6.677170127137722      4.457614736208306      7.275956180771701
C       7.809768094519524      2.263597407844729      7.699761647666119
C       0.142972067356788      3.705707041935821      5.608163118612716
C       0.488193307094595      4.237216313272432      7.002054067288768
N       6.679607495475964      4.350851035671378     13.848361726884145
N       0.416457779632368      3.881419409753102      3.168245317864829
H       1.229985744789846      7.912174539389274      7.624580140284058
H       1.914734009569588      1.486768210672927      7.029539364284592
H       2.963678392541546      5.995888395992163      8.169497587829653
H       3.004654524905623      1.128369188859444     13.977298149904236
H       2.418720469415134      7.570489046400896     14.367855625317773
H       3.927893021245998      7.806185305498373     13.633893630661797
H       4.466351630022134      6.785055028469332      4.931568018700912
H       2.999864757214899      6.021396229834717      6.406737120298445
H       5.304584889844548      1.541990806025136      3.757909862588249
H       5.496226242591552      6.699152835823914      2.808104096407178
H       4.895480834484714      0.041835317142479      1.997578797356636
H       6.548369487717308     -0.044425141884578      2.274251477673617
H       6.451085045716393      0.401912161533066      4.488337534930400
H       2.273695483232996      6.873980599266261     12.123993847890995
H       1.350988130102154      0.351663930610823     12.396290243707487
H       3.088856347800484      1.784540555915276     11.371740400001952
H       4.264336071263725      0.471813664773095     11.455534392441001
H       2.604335070122603      7.131540498681966      9.838483774178625
H       1.886482145563597      0.690602896059172      9.544743077164201
H       5.727635335266696      0.444540488268751     10.014212588993166
H       5.901653340032315      7.838714511627495      8.359425247572325
H       4.976102618949736      2.340513819237979      8.035416592021106
H       4.349853156426336      2.489766626836442      9.677585751977663
H       3.247577901114613      2.597652291327520      8.299102683399441
H       4.221100152501902      1.632265342489024      6.107377112158452
H       5.470375942276222      0.492827254671064      6.591660832525497
H       1.799708468691909      0.092503518200036      5.950854610817657
H       3.392607609110396      0.028396535734092      4.378853938918034
H       5.016007758280285      6.843050734127345      9.529631512102364
H       4.516089605968748      6.062611898754308      7.318027856123045
C       4.295566834817283      7.869212773000537      4.845590741093615
C       4.134306006278205      2.077836277775682      8.682195123622158
C       5.474814595928454      0.481065868017930      3.990450088170635
C       4.429163453585678      0.558238883354244      6.237426855840886
C       3.482728397294331      6.428009286840767      7.305299032233163
C       2.050419645321737      0.398406774057002      6.975131057123157
C       2.301881921770910      7.957685517524882     12.301190044847015
C       3.207607942147877      0.696467819350099     11.253438919120260
C       2.849109815511108      0.241420566040620      9.831036994314145
C       5.172148103581249      7.873130427799000      9.178545896992317
C       3.926803879540359      0.555047648816337      8.755263020699791
C       3.486048663036212     -0.013727355495648      7.329658148086258
N       5.540774304006946      7.735671883329288      2.675947588182710
N       3.015197011743441      0.143941808413173     13.666792973803258
