76

H       1.918139532626487      2.235376509378195      9.598157535311143
H       4.466135349739641      5.042260257392545     12.307507115323910
H       7.281634697458077      5.872719965752998      4.168380632103384
H       4.782286097994422      5.526480866288879     14.747259654331051
H       7.491702888237378      4.707060116403934      2.968815325582023
H       6.063767176691436      4.402196705267113     14.788391963071929
H       4.783006161941100      4.290140321730330     15.863068625744223
H       3.189467865793764      3.853816154437822     14.165747347650141
H       4.456069264063992      2.613623113817367     14.199586562273762
H       6.296976329585911      4.468190439421530      4.095309274017567
H       5.553226639074999      3.643114891057647     12.205206725285095
H       8.415218404180093      2.739397384408392      8.862765243071161
H       3.543800314105664      2.156443337867931     11.772393608743855
H       4.362554147201311      3.023095403908716      9.643086434723456
H       9.567864659480517      3.892305061552025     11.237227964163125
H       2.486819868990894      3.549839691027639     12.000237501806577
H       2.777975749631710      4.517600551862637      7.740490322026279
H       2.871663619703773      2.792382444036716      7.423854690320688
H       8.476669215605181      4.501135541517076      8.972054797809811
H       1.357574988085322      2.735148059953589      5.344210371779946
H       1.864426576903677      4.404784162582859      5.493330403641419
H       7.073295196820798      3.525201204108146      6.503388702097639
H       7.674734827672263      5.195031121806197      6.599319154299037
H       3.777310842859952      4.647535683393578      9.998448059830951
H       8.334627619265156      3.104850160666963      4.442839953155616
H       1.097794147753590      4.634698572034436      3.264669236025726
C       8.275384542319030      4.137482638990797      4.810202056376498
C       7.943494585666451      4.169513638932757      6.294279729889608
C       9.174745565719386      3.707502954052479      7.073239753583334
C       4.531495753618303      3.954654327462198     12.480310936337316
C       3.478249839639894      3.248129736663920     11.621593161951951
C       2.255721832914765      3.561116523190724      7.922182307253590
C       2.214025820490586      3.284829577715159      9.422498452094775
C       4.247270598524581      3.660632299042542     13.944016548289991
C       3.540282257892069      3.576775999280608     10.129766882017286
C       9.023232000229072      3.620097435172849      8.590562672033240
N       7.264733465041624      4.845315195432631      3.970969863847582
N       5.026547666694486      4.517476592693987     14.883173839863410
H       4.885652651428780      7.569904349276469      3.990997213798687
H       3.287177395446690      0.336726421306194      2.287993225864301
H       8.920066376415010      2.159639631780100     15.328912742140425
H       5.593540983801290      7.329587088737443      6.158393810387381
H       4.272908586106580      0.799543529819817      8.143444536010623
H       3.735102923649435      6.817545885089289      8.530811006581017
H       4.553259772404809      5.929087718171865      6.414791758726005
H       3.616801738826938      6.331877283709877      3.977620377449470
H       2.526083806685934      7.387308991302065      5.958506677452061
H       3.590262033864120      1.146051861608121      5.826478797955044
H       6.637313096391821      0.115923381259089      8.259933789556902
H       2.003496760763869      0.465238991562870      3.358015535334845
H       3.285304758987981      1.588248220595942      3.387555704081266
H       6.201266094353920      6.087925047190665      8.572564236652362
H       7.827813120060735      6.659195213509834     10.646656893135507
H       5.230846079203848      6.644610437665348     10.739536177262691
H       5.276351820409233      0.720222703915535     10.407251240319933
H       7.717049321589647      0.770138722036057     10.525095705388027
H       6.734144924224813      6.638182188481065     12.816797850428026
H       6.194933210729012      0.652205150408870     12.658183830846115
H       9.147618073089991      7.473595919689302     12.997077817243731
H       8.511870679768846      1.486066854543992     12.900277152171382
H       7.882917750762616      7.036521089774364     15.055492133914194
H       6.963275937813033      0.904891304596081     14.892804099905771
H       8.709810458600888      0.996392999951702     16.530921813219429
H       9.904739387091267      0.755340681083973     15.404747427678473
C       7.043932491528318      7.623001298629606     12.427691997947276
C       5.829735340064116      7.422045840271846     10.234369944068094
C       4.542684900148219      7.379963780523961      8.030101414728044
C       5.877707812140762      7.131168045088702      8.737221151319149
C       4.606390795608272      7.024204711961721      6.544676475401865
C       7.199448703725540      7.527853763276937     10.911380516619886
C       3.534750963741196      0.054706287101048      5.675645878637164
C       8.258457114333082      0.457203095520202     13.206549244225881
C       7.927730945833269      0.422056797845326     14.690527115761087
C       3.827550708247240      7.382498821324642      4.216278266714891
N       3.041053709130827      0.577864182814306      3.263905021792243
N       8.937020963247770      1.132516579484473     15.528720768106577
