16

H       3.103043682723948      0.717719767358287     14.351489694596237
H       4.682746864486189      7.618613811531678      0.713616623284766
H       5.095319407886602      2.133272943638735     14.759475893824231
H       4.148365050239967      7.084508916407782     14.061448312589837
H       4.050123565623011      0.909325745232372     12.988148701733438
H       6.085187335480274      0.723177945998561     14.299724689878589
C       5.149081563572364      1.046734317857923     14.750861810544057
N       4.065768583400829      8.113142870498919     14.148802002261299
H       1.300412866152939      2.983440351841543     14.787892088282014
H       0.815269533750177      3.760991531920686      0.614391993794937
H       0.426229726046772      4.417680124542461     13.020559613791969
H       8.230559075425809      5.737606133292140     14.169659150163719
H       2.340285912948005      4.396894011680511     14.459685323892607
H       7.237851813303507      4.426828803765972     14.404949524151100
C       1.376175818639640      4.066929234829560     14.845754411684764
N       8.183261091268356      4.702195159286815     14.102621495239930
