34

H       0.788510356512969      3.182455796094793      6.773339051407401
H       0.260484091751518      3.935561958177025      3.796640708180463
H       6.534214530964628      3.491936374541285      3.997793879044485
H       0.468461956189297      6.079731580427654      7.719022943246852
H       7.699340101250042      2.565888076127607      4.730065700336473
H       1.100613291942310      3.505892286983512      9.059623473294147
H       2.233550330658569      4.682627818137011      8.727561475866221
H       0.974819144493480      4.991199030330053      9.810308401760306
H       7.180959266724609      4.856017700378275      8.270324523095466
H       1.491552469101631      4.625400598300851      6.026626081206856
H       7.066312389782729      5.394878363799600      5.415189318189843
H       6.361107636803774      3.996368828017632      6.253852649926035
C       7.252675557427614      4.366646636624325      5.739733729499712
C       0.330807918987390      4.999807094851251      7.830296735628178
C       0.602352159366717      4.238876397889413      6.540091942170786
N       1.224796265816270      4.527565597007050      8.923345335428222
N       7.421889753379781      3.544965395312812      4.514671709760711
H       4.595787561019692      1.340437945951084      9.891074346425246
H       3.090758729320197      1.141626104114973      9.187039130101422
H       4.112899336098489      2.371964570730496      8.682325757423818
H       4.881928096669262      7.095556194285194      8.662865535002457
H       3.599594903840918      0.955434174462865      4.205719634424164
H       3.903915101380900      7.009036194548044      3.811345955997203
H       2.798795388011545      7.452336626177421      7.366236872894219
H       5.348490494038638      7.528780184704092      5.651917543721986
H       4.310097008017288      6.123517685927205      5.976549009603862
H       3.397623936358491      1.361631423570866      6.498930489367372
H       5.613436992897576      0.893776919708407      7.660373285682548
H       2.529759883602037      7.355582708808170      4.723554744942532
C       4.319072743192445      7.209525754555015      5.845815034123619
C       4.656088324912054      0.465767189711871      7.975017451070288
C       3.679291081111544      0.350908456204281      6.820129929341572
N       3.540914947115522      7.538123245776866      4.620604701136872
N       4.076396616808834      1.379612983064155      8.997998612542075
