16

H       0.698410254027230      4.033670250938366     14.544306787968960
H       0.331153237724936      5.378021678973417     15.504883003189404
H       6.683993717462285      3.743825585648695     15.582415383140994
H       7.442737568775721      3.984343126121181     17.190965935909901
H       1.444242259716833      4.231020266019100     16.017578793484912
H       7.867507259087728      2.551223070511533     16.203952987700102
C       7.592116970534086      3.610089956531431     16.175332096919419
N       0.541604049799896      4.358795763318264     15.519236329899890
H       4.090241472366596      1.064462470941482     16.003994019868991
H       3.556411209325399      6.189266985709890     16.404458096519914
H       2.393572737577845      7.400160971020290     16.226806559246548
H       3.399805426602453      7.404255412610481     17.555516585692477
H       4.298766414226820      7.797464755146786     14.744332196958320
H       5.360823221703287      7.817936877893606     16.187160224519332
C       4.328539000261555      0.007161008315502     15.852115595142619
N       3.369790246239427      7.206877426604179     16.540522071484872
