64

H       8.345744049341119      3.420838280351081      4.036720398188004
H       4.553787415344159      6.126476897427556     12.157750689494016
H       5.601135565346575      4.815549056329398     12.348711432374044
H       2.781542146350799      4.831195231559289     11.421616476997796
H       3.582715677722706      3.342429691187021     11.949780868716626
H       4.762652093924753      5.132142832425229      9.757226355410083
H       5.283250391001823      3.513837512358164     10.225954127246258
H       2.888531105363403      2.724120662030792      9.572449509154213
H      10.695420360413875      5.161708387395514     10.525761395362425
H       4.291593623968268      5.013649326470882     13.368211972340744
H       7.004273943837119      3.680601687047086      5.003332870556970
H       7.995686516517488      2.348374699846648      5.255517595047227
H       9.026460943113191      5.117568660999646      5.451206215305382
H       1.040974978365353      3.593996387752840      4.865174789671468
H       7.770905453430075      3.376497907876636      7.639827468154744
H       7.270715914989459      4.988057973415730      7.122480523122896
H       9.556797402909615      3.210896458156709      9.466773426911923
H       2.965432940037838      5.311900276844987      7.943634879993592
H       3.986599666992216      3.143226545503934      8.263487744109018
H       1.834063369262974      3.360367651156313      6.890745349632464
H       8.517824738064647      5.370400054429105      9.124730545473829
H       9.631376958803790      5.795627160881419      7.830338047033004
C       9.099213563646677      4.951324054213154      8.294392655838090
C      10.098907914326874      3.947219921333222      8.857651694617289
C       2.424360491041957      4.575361685213720      8.553737479651987
C       8.839530749451399      4.152287541016340      5.931682500772114
C       8.145215667562633      4.341825762519244      7.268643335904646
C       3.744419622373834      4.315682778279234     11.476821799158090
C       3.423471055580977      3.564059386530649      9.104763251331949
C       4.401505094837804      4.157559176324376     10.117324715138935
N       4.607632950318177      5.116876902153087     12.395034832467426
N       7.989442081843330      3.355091655248363      4.999788334838100
H       2.387785831430576      7.901907690050392      7.457892683265554
H       5.006273767940281      6.955587364103764      7.382831216574227
H       8.674662080562729      7.783122905152908     13.935885669441623
H       5.133851329875402      1.156902366648510      8.765158722380033
H       2.664238621601041      0.067322519877353      4.841117664555886
H       3.474697577144590      6.969461795976375      5.440421993856937
H       3.359073807536559      1.032709336094173      7.029514994801065
H       4.104302280744745      7.276438768178581      8.849509506046301
H       6.061498855652581      0.947949322601931      7.283445646047807
H       7.144678271595958      7.371128346534520      8.603603077474144
H       6.220559731661079      7.647552265008577     10.078624846890692
H       7.348662304282834      1.651378940257524      9.847375074473350
H       8.370158474118609      1.126433468423548      8.511540955410732
H       9.000956888175637      7.543682478842042     10.327591569853675
H       9.744986250421183      0.767973491628104     10.425007282638092
H       7.135528230022254      8.030391569233645     12.063451594541503
H       8.138450810768504      1.116660182006076     12.222968040279024
H       8.937758591862107      6.688143647582504     12.710905282013870
H       9.981780960721933      7.999718035774392     12.925622455379710
H       5.527400340835083      8.310601896917296      5.405935166453800
H       4.766476106358700      0.071056905170669      3.738077759895980
H       4.729638414633033      1.305364280078115      4.853819966851875
C       3.340259422679346      8.332252935399044      7.126295706976329
C       4.505622996898530      7.757200052559314      7.950007326033961
C       5.639061374984099      0.406143827625734      8.143153452665768
C       6.661401302880714      8.151846952332960      9.207237954303713
C       7.827142003936881      0.769255054747366      9.395244918070656
C       8.228019470646958      0.116328491921750     11.788822279688413
C       3.421501795739497      8.044447878664375      5.639708500731352
C       8.822612547367267      0.173619998754607     10.392442414815443
N       4.740310418493751      0.271786776728940      4.749082191949851
N       8.989638385883538      7.694936818940126     12.960518740895532
