82

H       6.609862724692085      4.421097154113795      7.094314996692998
H       8.685551597775241      5.659750503375392      7.918134700650128
H       6.597605150220008      3.643341662709432      4.926159949875390
H       7.819999497132732      2.773913827666326      5.646563410283110
H       8.193030563845836      4.062334522525651      4.630304570758979
H       9.254410597251331      1.121560678570549     11.469556101535254
H       7.271778201293333      5.685339367695395      6.034927151963932
H       2.635291678675919      1.200398673755129      8.986808452687331
H       8.710287617447703      1.374636102963641      9.805628655571104
H       8.136644657536644      3.326638008144769     12.247296391792760
H       7.528659720612360      3.517786340829661     10.609779667502476
H       8.477789083382362      4.809565975908813     11.358469058069621
H       3.177571112397184      3.510357620828805      7.814891802651645
H       3.873645959341397      2.743161112769001     10.263845061671056
H       7.961969932738064      3.310310973721248      8.681625479661561
H       2.260514345126375      4.907467563963639      8.344581277897678
H      10.404727509461523      3.517496340379671     15.719163110896524
H       4.482331685876499      2.363699858143486     15.310696473555957
H       5.542019333844317      3.652950238321424     15.109556979106321
H       1.819261030961251      4.918725373342403      5.483076386285943
H       1.244235526349174      3.885579218238405      0.269837032168630
H       3.588874634662030      5.020096745608464     14.356874825424093
H       4.409483810566173      2.461227333743439     12.924454184788859
H       4.755434711186469      4.123890558920987     12.454808438393593
H       9.942626550762093      2.511071291051270     13.396540074367588
H       1.408603079339056      2.699412618917023      6.470236270250002
H       9.901369748536581      4.256000076633963     13.375401778803246
H       3.474818744145045      4.442787773667045     10.235212509679469
C       7.471845960059597      4.708009530081196      6.483256408628267
C       8.744709892567192      4.748148367724923      7.308369292732309
C       9.505577851201000      1.607776123170948     10.520637806670724
C       1.877527163511488      3.165177523232675      9.527743570341451
C       2.184141674435351      3.825244900293049      8.163521905944521
C       3.066661560947610      3.456896351430066     10.476883309128679
C       2.745329283598025      3.443270541229714     11.967264798849492
C       3.978730105819700      3.468417631370465     12.869470912709543
C       3.601025323087006      3.928964562199422     14.270465896582571
C       8.935206831352961      3.538725166453684      8.226882211694912
C       8.383094340706837      3.722500625625511     11.259461631606488
N       4.547694001878437      3.396222024154171     15.288040688972465
N       7.536118073021006      3.732122610319968      5.357080098813055
H       3.218294603389724      6.669761109267666      5.529049784141702
H       3.905322440209993      0.292161700937663      3.516657348764876
H       6.012771053058491      5.232772881201616     10.937551749341967
H       5.204039175813514      6.418038356038813      7.428214748413862
H       8.463381874483693      1.927290898904506     15.476972957146481
H       6.345289316768135      0.565893473278798      8.822205383628159
H       4.827994720361244      1.303299719744007      9.300269150468310
H       3.624684441970332      6.815676535609412      8.073051239916214
H       5.291626167171648      1.171204208963902      6.593404439095121
H       3.580986099946554      1.267078988513358      7.008313978188826
H       9.548404885502626      0.775810780857572     16.087405387187417
H       4.889003372136726      6.849142671031759      4.990579444907904
H       2.574660444114995      0.748429369486399      4.428845988879437
H       3.995352007242694      1.619660824325686      4.526162402987769
H       7.936851160012758      0.802886523110039     16.559550283858464
H       7.653856553660954      1.507201195295076     13.246937326948126
H       9.134773983136654      7.429099019523408     13.925354621985507
H       7.857584226831218      6.688783879263393     14.897364380361948
H       6.359192147319385      0.969687219566024     14.312359143483832
H       7.515011515967369      6.615225029896497     12.171515540653775
H       5.924284943693594      6.609392089043445     12.921863431124372
H       5.582424277050309      1.225287779430957     11.776447305706640
H       7.043523250392068      0.812533751049712     10.913063096701691
H       3.523533272092659      0.368857140600352     11.279426014455648
H       3.208661344928832      6.514666179182178     10.158048200616397
H       3.920496011680995      6.433112870453137     11.775677542679773
H       5.378559736206817      5.220795928784689      9.294858233360976
H       6.969091064874665      5.931035275564740      9.626441150174600
C       5.949968103847203      5.813704791093837     10.015448117242592
C       4.014307042883361      7.396830193716787      5.348530460450202
C       4.395081075406688      0.566503742428073      6.781373437602574
C       4.582804137196869      7.256211769561917      7.767013569708895
C       5.313115998143000      0.333699989553722      9.124190805462073
C       8.248230932520336      0.003499393663071     14.645692551172061
C       7.217086952575597      0.621018680356407     13.725525907662439
C       6.683257211790306      7.264473940436912     12.475797969844518
C       6.192863994942475      0.375223889389523     11.444042427500637
C       5.304183156670499      7.177830969500320     10.260285454300224
C       3.895887614898085      7.014390419751809     10.847557259003102
N       8.575011847915244      0.936811214536869     15.764248198218798
N       3.609900534099347      0.658879802205527      4.431550462971527
