82

H       5.749345459507032      8.215724332540590      6.690780127871955
H       3.331174211404164      7.903579574004100      4.822695025545388
H       4.393721700570790      7.086849524464024      8.978665648675495
H       2.242686941112160      6.901350306251416     10.214521958068763
H       4.461849949295047      0.861592149276121      4.847023253660002
H       4.470522343279238      7.084427340988173     11.287998834284773
H       2.764906428102936      8.205033312980376      7.385686004496810
H       3.792223525148922      1.229661716580363      7.403230115940255
H       5.339137173793726      0.153399434230936      9.019111830428928
H       5.443672959336219      6.387967165615946     15.882836789437865
H       6.550944441503327      7.665980132858046     15.844131903006165
H       5.397458799543152      7.591971542222305     17.043803636856222
H       3.608452085251677      7.874335996258279     15.456013024832981
H       4.737564345599464      0.832692977966401     15.459634082679800
H       4.942202042323760      6.812859141712717     13.580443054128855
H       5.968632430115020      8.246860944450621     13.524874851335497
H       2.952367800973593      8.201406948659962     12.978377993056071
H       3.971292819736256      1.228751894141878     12.921100359803400
H       5.416278642530902      0.148745285410043     11.207232568458002
H       4.371847463413065      2.257580327101057     10.155438190860743
H       4.690448678111665      6.806065203526638      6.651951604382291
H       2.814337531035295      2.116360561067027      9.319642915448389
H       2.869564008898066      2.111741734237130     11.085239571925237
H       1.544926014880857      8.281225004857411      9.346372560827279
H       5.097983811118572      7.651884757748466      3.195238830277188
H       5.157173177208931      6.425440976020783      4.332269723025957
H       6.266080617001236      7.700162578986759      4.383366665179355
H       1.600156755306603      8.290591725110113     11.111564092744553
C       3.969255565714215      0.140391950711323     12.776077180971635
C       4.352268950812730      8.207688942076262      5.074670469289500
C       4.712683062554155      7.896411554295908      6.510155782754617
C       3.794183900171161      0.141501358975193      7.549564487820504
C       4.311345718943686      8.183330394331817      8.922645913247525
C       4.624128024992379      8.183476464642307     15.189340035763417
C       4.946709959568055      7.901290043486240     13.738878896437257
C       2.152306629919456      7.994665666351748     10.212237882709939
C       3.533724945217396      0.245166221763730     10.177053865396378
C       3.390770345865837      1.769653768651076     10.184372166466140
C       4.395873854162962      8.181010246296861     11.349103731483451
N       5.277480604210782      7.446998815617088      4.186610609435801
N       5.564511409151959      7.406691684191579     16.046427253224010
H       7.000793334665718      2.027377516689976      9.336460402554586
H       5.821541758837822      4.284520829528937     11.157009669129080
H       0.209994188769780      5.436870786924790      8.939934246434925
H       6.484695278016404      5.658087505235997     10.250802164010052
H       1.199808854270308      3.950008454444721     11.142025878625928
H       0.267678348258846      5.431762468841826     11.251448148104862
H       7.172592384181766      4.311612899792072     13.022549937556576
H       8.181439434154498      2.868317807887670     12.937650433059416
H       0.742547518059574      5.677727542412163     13.543718291904026
H       1.756158785234316      4.235135159895686     13.477533081446557
H       7.828840286469601      4.609635292404278     15.498523262517597
H       8.549939478040198      1.856790254079716     10.182607832550126
H       0.523576941933418      3.239484664266631     15.395221607134342
H       0.877423341150883      4.901248157333706      3.148976921595034
H       2.046437486232789      4.836396358804647      4.335895943019291
H       0.950642978410695      6.122423944616787      4.290165957632589
H       7.542834292888396      4.673809063176648      4.874657705078142
H       0.216420751305693      3.285629296361094      4.775186917452526
H       1.529530180300813      4.285585903360808      6.637269672502080
H       0.512153183360598      5.725941197990937      6.613714883381600
H       7.967917612583391      2.916132545420433      7.423302665145092
H       2.338580752021594      4.809872383083610     15.801364272551805
H       7.043770594156401      2.025753026340074     11.102357022360154
H       5.759437030695819      4.286446008842653      9.392182202109716
H       1.232580008208358      6.088762443232328     15.845985806609381
H       1.184518212676906      4.878651007245196     17.000837631964103
H       1.118402734629817      3.937172864394964      8.953005003787817
H       6.981474211585200      4.379012587158266      7.432229516224064
C       8.002443094834092      4.002555334504732      7.577886841739998
C       8.531366697691983      4.343647168713816      8.964764001247945
C       0.411540870386354      4.298749932666017     15.142281049417136
C       8.188362287930971      3.958013353814538     12.803204285622110
C       0.737302007553671      4.588191871919404     13.693889422171161
C       0.126890286417838      4.347452991775720      5.027005007861427
C       0.502087366969825      4.636481046562448      6.463328215974915
C       7.577141302328076      2.361403914985160     10.206201279822702
C       7.746755599350241      3.883131434733420     10.204605153255136
C       6.375290384138283      4.566503997107099     10.254179586799982
C       0.181824839918212      4.335444649393368     11.301985313440907
N       1.352339321555882      5.069206755151122     16.004564899072598
N       1.060251863522396      5.100238984929887      4.140893664376294
