76

H       7.057992858657842      4.303679982819351      6.022148575423306
H       8.408014814549739      5.619461396403031      4.452053824699486
H       8.014217100676602      2.854433410576013      3.424384452521043
H       6.824411320126497      4.056996797699294      3.467348716982735
H       8.201011212474999      4.250385296958241      2.508708095689112
H       1.297383794604904      4.351666801186836      4.208072229056407
H       8.214125323000495      6.448175731346641      6.864451433190196
H       1.266404957863163      6.338324680501090      7.761557423929405
H       7.706367544103309      4.212168388244101     11.257089199528782
H       1.466968766086654      6.212367534562510      6.018801667748960
H       8.088409422923329      2.882180657449266      5.803714548109912
H       1.108845224332650      5.663010566163972     11.846855496387004
H       0.527799248618690      2.870649957915907     11.000675782122510
H       0.861833135102795      5.532913373071447      9.516572939686165
H       6.443101260096203      4.318860806467143      9.544585659701895
H       6.259589254712914      4.386396595717750      7.802702849978992
H       7.033213413534937      5.737382892767681      8.662750775935010
H       0.739608409783551      1.930746306548757      8.528439278769048
H       7.677701517798456      2.039325691735576      7.633514509943621
H       7.491536558391253      2.173639947985371      9.381245088162609
H       1.880937777950083      4.095006320150341      9.345544390259846
H       1.015417570692259      4.321442083200491     12.848071966736745
H       2.253640296337942      4.418338150017861     11.735062517166387
H       2.523557846009359      4.083713232023499      5.858248467976056
H       1.864638275643933      2.627538440988814      6.617092157343650
H       2.661974695609203      3.874749838181034      7.594542826267140
C       8.139306570795949      2.448417442056567      8.538182577092721
C       8.099127173460396      3.980249826599574      5.879523770259496
C       0.812943418683904      5.931211190649942      6.854983968171133
C       1.991631025345655      3.710117131975982      6.743341445679336
C       0.631776548906804      4.404132344739510      6.919789658558739
C       0.394464249126067      3.951673545268455     10.861852008976415
C       6.940949183989415      4.644183109733766      8.622322087981987
C       0.843197689745848      4.432508220085187      9.484852684599552
C       0.230061151949972      4.537271810223304      4.383784017043751
C       8.311621724827017      3.975036392252967      8.460020255828185
N       7.855239997990218      3.886198106379138      3.416255126748539
N       1.242553775748747      4.633772508778144     11.888106289014601
H       6.662583623161698      8.015163557733780      5.649442584877065
H       6.084876157315911      6.620634377334550      6.575897965073873
H       5.466438099685610      2.192364578138804      7.613821605797829
H       5.012179406648844      7.995712151744618     12.725314524406778
H       6.357086701740902      0.126838548728168     11.767426022056179
H       5.142142683780657      1.294715069619762     11.858899722640466
H       4.159507570662968      1.398020471794746      4.089583188471455
H       5.648452684913930      2.064642657442175      5.864190207445745
H       2.491893471015458      7.920674307061262      3.339254937992637
H       3.719255662623625      8.060477540097388      2.222393559445989
H       3.681102487895037      6.713877357799129      3.227455065994089
H       4.790996917037643      6.678838450688582     10.757045337721378
H       3.540091388420917      7.932772504144520     10.870785820434321
H       5.091829114776002      1.316208735294024      9.466874388911465
H       6.112044386984195      8.013573455130237      9.187704146001680
H       2.292195520358451      0.197732340652827      9.264723618315266
H       2.964458378089196      1.638450325308916      8.494614114725758
H       2.123749644406552      0.405469866310661      7.531579409193745
H       4.880496358683982      5.891407606402902      8.315870625866861
H       3.447783359286726      6.064008809208238      7.303146691869213
H       3.909699906111547      6.845771187902133      5.547152263073129
H       2.868973573462262      0.145240060273378      5.766579868420636
H       6.884925506641846      7.986467978707376      7.387588984672640
H       5.376060774170462      0.100210810770476      3.986108753427588
H       3.304066433538600      6.163153264634330      9.051986092682739
H       4.050698635791961      2.320279135545740      6.562675457158842
C       5.065936865601518      0.220563948500893      9.365089115681595
C       4.607440130981456      7.758355772640710     10.684294191560825
C       6.184314219940910      7.713714546448701      6.589602051733580
C       4.998664861010024      1.793814184399782      6.707747406511728
C       3.918761954958096      7.945564143113513      5.592379080888235
C       4.811201423845871      0.268529544434992      6.781422771617503
C       2.813933490804475      0.558830662648788      8.369597464065651
C       4.164723634253363      7.960669195504662      8.156896915820122
C       3.941714568681893      6.438850329907585      8.201712405864750
C       4.327050179571890      0.321023757433729      4.222627555102356
N       3.509076393696573      7.739758123671238      3.184819985674236
N       5.323753645969462      0.269102332689187     11.834697221149140
