16

H       9.039480669192452      5.692691831253310     19.232307746752934
H       9.141119159004887      4.337926583331442     18.269176346936760
H       2.187094368081654      2.990963902820299     19.647195127181433
H       0.412775086836849      3.945516065936223      0.780135399733182
H       8.043488119176025      4.392826877301570     19.527022452805355
H       3.203620280670344      4.417170611475072     19.310584508503812
C       2.233481072801294      4.077342961281730     19.671138191400765
N       8.994772442674009      4.657229927937342     19.234485033147070
H       4.295725087367516      0.206212078571320      0.840456579991189
H       6.034544765176229      2.166498403201402     19.733097947204204
H       5.218238241386539      7.102721808662789     18.848338955586673
H       5.250356992656320      0.888920478838864     17.862679612655580
H       4.143010295298112      0.716978600380409     19.107623938741249
H       7.108458483378990      0.783519137362452     19.401972453747806
C       6.118601891976773      1.082290533535276     19.742817093157598
N       5.110593839052389      0.519269162522044     18.810427847869825
