16

H       7.201061210492115      5.688422384236389     21.023480882352882
H       0.849916265814303      5.449082659524285     21.852083671003648
H       0.822456419563572      6.169988563211224     20.209727444861851
H       1.130364126358053      7.836452331110671     21.933456894179624
H       7.600124130666159      7.420224681597093     22.682472710832229
H       7.604606740717297      8.092623186782523     21.129289258738481
C       0.293643271499039      6.090696880503142     21.163640997062423
N       0.185873480528733      7.449976078968684     21.759407539909102
H       5.197149276016876      3.265942048321968     20.781993900663291
H       3.925241740497230      4.314789792336652     21.490157353836029
H       3.751161268094810      3.689372766770924     19.816187149487035
H       3.830027545119372     10.379315856814257     23.228373445888465
H       3.645894424672827      9.787950797509685     21.688216803693351
H       2.455135960305818     10.775203273200118     22.317903288383139
C       4.123187298689612      3.472131749843661     20.820620157605084
N       3.488193327403847     10.627014298821807     22.278984593422763
