16

H      -1.489677499824887      4.032272228248283     18.494252705131405
H       5.988058455575272      2.260055556138014     18.713532847896900
H       5.678484395026691      4.439292084255443     16.722083159508681
H       5.777795241819254      4.659773731227203     18.492750466414808
H       5.862686072707423      2.053687428013640     17.074746178548342
H       4.562639703999865      2.673287563946531     17.935356052144048
C       6.099990827213782      4.051996942183624     17.648973267724134
N       5.593913186008156      2.668397573356570     17.854701124619403
H       1.652151646193561      0.743165949370699     19.166048693731597
H       1.268602469223071      6.872959954004486     17.322307614331642
H       1.460808210140868      6.988969012129757     19.095546811352936
H       1.486625294872910      0.635983528895758     17.518791998778518
H       2.810608695724236      7.461307545416277     18.017478219586067
H       0.217801543243433      0.174429037084598     18.511509622149216
C       1.727562471027370      7.431619455394276     18.136627561964580
N       1.246491510749926      0.176905593795748     18.408420616006808
