34

H       0.328393978163652      2.272910743533389      5.744158854221371
H       7.281746162999849      4.490431523021713      7.630578557685637
H       6.197151088508658      3.153101274409378      7.180544933662718
H       1.482957693535786      3.491067585489029      6.309927294495041
H       0.283408035621837      1.489107008404003      8.247584017398603
H       1.397831511363593      2.710940166436454      8.535774279096794
H       0.159739534889330      3.270817098916192     -0.169310331515483
H       0.229232820479277      3.696639929771738      3.222316395171612
H       0.577858690601270      5.303060272406486      3.526083050121491
H       1.617750200923099      4.113334546152271      4.083294201992859
H       7.439173955775184      5.410865343983823      5.372422853490438
H       6.336196964521473      4.192219800392886      4.686192748246013
C       7.380087580648079      4.408190187986641      4.938575863207285
C       0.413270700285778      3.285805447851409      6.161925383574244
C       7.243378487015428      3.470113639879598      7.237015291063202
N       0.384632970607484      2.499583907183855      8.490375851846476
N       0.614421385565598      4.349260503768964      3.927018789654466
H       5.244207537245033     -0.084714741762985      4.997131402719666
H       3.968143020520411      0.199730008182264      2.918089083795798
H       3.730541060885761      6.571772617901583      8.937021425904353
H       2.353250368222440      6.914276013424998      8.016631489135429
H       3.404850349186163      0.461834828172172      8.727416764912727
H       5.152642552504681      6.800356063942783      7.006587560064578
H       2.474303118068508      7.187718976185540      5.545953162254789
H       3.913432363245732      5.550291257802547      6.727286190357852
H       4.273858295715529      6.176411298745956      4.106660739513238
H       3.677272542581867      1.451805764559125      4.012989156905922
H       2.547437772125428      0.251761944952193      3.793783365426793
H       3.459135098492936      0.895339076424221      6.453708307027721
C       3.418650521806522     -0.170658401676038      6.189974016523744
C       4.307564059796540      7.223035236124629      4.425854126891034
C       4.081873858448530      6.624791278497918      6.857118998454006
N       3.568531987435626      0.429880117867481      3.840995633424634
N       3.380087015824946      7.059584896323108      8.094376628052615
