60

H       1.635567786156119      2.738826714553933      5.805843217746909
H       0.491016865745622      2.368859782942856      8.230020611502447
H       0.669328768453887      3.333189324408756      3.806696101254374
H       6.736497667417262      3.709006321260645      5.948492471656690
H       1.049515287090934      5.844554073838462      8.603703917870034
H       2.221143315785724      3.921765761711772      7.634035698597624
H       2.245770536744351      5.231238927710496      6.487777583216076
H       0.129006489104430      6.104947491852957      4.678562355646027
H       1.857317308611016      4.579628586469906      4.214876139061731
H       7.709864024906895      5.402568119069427      3.127207958315158
H       0.019231178901741      5.999613159923876      7.213661407188622
H       6.886020054989067      4.960404702883168      4.469779730986577
H       1.589803522462057      3.734230575575076     10.144953396592483
H       0.513813217570180      2.509986877609364     10.492751581361878
H       6.587151094703104      3.909837895417152     10.277076375119787
H       0.780530614114821      3.762559160636873     11.575544947476146
H       7.586231827337598      5.379501419071919     10.259303106595087
H       6.462048917061315      4.720301649381785      8.096356625108196
H       6.703516201336758      2.347205915042431      8.113348140120245
H       7.417792744796244      2.101896451204141      5.747135408490077
C       7.552175102539134      2.940985700884782      7.757908317072968
C       7.574996501124135      3.062161274092260      6.240586882087007
C       0.955997019428248      3.590557461290170      5.919108038599770
C       0.901266753662137      4.137903067386913      4.504430181212308
C       0.541895612180325      5.257058065968085      7.829655975186245
C       7.466903475525665      4.351056790270341      8.347590045319597
C       1.576141907641895      4.520330849197441      6.977831883137429
C       7.495154225650253      4.360905468419770      9.868512037827804
N       0.670395919669398      3.532593362894523     10.576985180011782
N       7.827353390835143      5.227853683223608      4.134043006535379
H       6.848138501092492      0.209603679231416      6.609591788757529
H       5.653422953688077      0.538701114029123      8.832933901550170
H       5.668957566548710      6.977184126064850      6.200523533283630
H       5.348850881701947      2.006762955566477      6.568807118328595
H       5.724619388492352      1.072456040693030      4.334118571283683
H       4.248822940050234      2.036978198753441      4.497617580669814
H       2.950799085336243      6.291255377327428     10.086240684704372
H       3.742633920329853      0.213737697342151     11.552652897642615
H       2.625714332092014      0.523228489890867     10.383308043144250
H       4.218367000531442      0.978311443208548     10.173759660107601
H       3.028282987813398      6.974319896757406      6.647608843575904
H       4.314871336955376      5.873341209835822      8.134195792090850
H       6.387401236532574      6.925012641258833      8.656529559410131
H       2.192617537684815      7.628831345589412      8.030000896705833
H       3.600312929092245      1.701493016183379      7.950544392412523
H       2.731891498942076      1.434455169591644      6.459553905968198
H       2.935115614794699      0.044224918404537      4.506353245714146
H       4.325463375794516      7.018945697973800      4.457003355813924
H       3.933683925526630      0.062004400475560      3.200590657951921
H       4.677590757756417      6.377693182145397     10.472839517479587
C       4.230909995871650      6.926546701738306      8.439608213436609
C       3.169850016366986      7.597126769114599      7.535733261964026
C       3.530197609133285      1.028530761826454      7.087048767948549
C       4.739484816314405      1.112056495708071      4.809830531221678
C       4.871361056411699      1.053467813472492      6.324154458848221
C       5.843889211479187      7.893624811334786      6.785875528419232
C       3.871651128103302      6.854141342605287      9.912540219556956
C       5.606029452187889      7.574533308836243      8.253129988144931
N       3.971281696964406      7.965658054207172      4.221723159381845
N       3.612767534759235      0.230354499065463     10.532779787431044
