44

H      -0.968723387757233      1.147769978457121      3.131751278361419
N      -2.221327090012272      0.181083413814513      5.181195046301443
H       1.669879543447758      0.986882951578708     -1.246053188201175
H       1.693712897801930     -0.746122164490254     -1.522837727079111
H       0.300254608897914     -0.436243125076325     -3.578581669015064
H       0.346615698224536      1.309957936239334     -3.348435386962064
H       2.938173884505948     -0.306006917429514     -3.360031975806384
C       0.454155879429635      1.602313789540303      1.078349793372523
C       0.157268104893451      0.132639289244360      0.736691149358249
C       1.398260796168351     -0.700541099983323      1.086391882838091
H      -3.106369486140120     -0.206052876564624      3.331882933405538
H      -2.137913779945129     -1.545051375350564      3.996713408326666
C       1.078513018131551      0.153675539970099     -1.641144272547479
H      -1.968851073584675     -0.027769664905036      1.187798861577949
C       0.888188493183904      0.379705529540645     -3.139932473866519
H      -0.451973173548375      2.216605588188113      1.103476019547484
C       2.255527747683159      0.424571254688899     -3.804450968064120
H      -1.041344716238282     -1.474279074878476      1.559433599632124
H      -1.438591415373489     -0.149717472204891      5.776554308912919
H      -3.099251634143890     -0.045135618327038      5.665325456819017
H      -2.155681535355973      1.212124689515655      5.106536835721712
H      -0.816371744686465      2.049690394398627     -1.186307839932303
H      -2.107095578138248      1.018791774993869     -0.549614757402633
H      -1.597148648878929      0.841936468953082     -2.221453280644831
H      -0.157709864739147     -2.216605588188113     -0.715260491376313
H      -1.788790473494307     -1.519843045579188     -0.665276710818018
H      -0.892732881098703     -1.551984341069301     -2.179165612219012
N       2.172941217144645      0.070768648478328     -5.248364523184926
H       1.827638375071690     -0.902603036150860     -5.342430364559875
H       1.535138480401285      0.692795299149593     -5.776554308912920
H       3.106369486140119      0.105155036803672     -5.680992532792382
C      -1.015320682795338     -0.378961550118461      1.606922246788798
C      -0.964978847459823      0.054176603061081      3.068449512159152
C      -2.167676347730603     -0.461717964326851      3.834879049152827
C      -0.202608676174599     -0.018290708038645     -0.798209579406970
C      -1.234469150815078      1.037445973571084     -1.209037512224347
C      -0.791302030745429     -1.407500126973338     -1.098695877982061
H       2.312806421291347     -0.285972484565135      0.649254658213961
H      -0.043898733658736     -0.283099786171329      3.561827981653975
H       2.723181098056701      1.411664681350312     -3.737123095422558
H       1.137348112297543      2.047961122785926      0.351210137484676
H       1.285706440709751     -1.732056596473700      0.739651946867815
H       1.553234493598572     -0.720650129093893      2.168494293065553
H       0.933062160543432      1.673488192228787      2.059929436917002
