38

N       0.752249506909697      0.484928719315764     -6.837978162871012
H      -1.060998825225631      0.604688750098402     -5.800171630029414
H      -0.440831458284247      1.756130813053805     -3.115258383086952
H      -1.264828238680045      0.209199908382857     -3.265530794190551
H       0.647805699302973     -0.757275044097968     -4.493063481248947
H      -0.001643864885811      2.019610037458215     -5.638142493060339
H       1.757921775720915      0.744739367951565     -6.746710371180328
H       0.707504517150202     -0.537453814489972     -6.944468031392278
H       0.364617185876930      0.921940029752500     -7.683749165987781
H      -0.387260207871517     -0.717053623879215      7.683749165987779
H       1.348763492199117      0.732687858483905     -1.754596050689532
H      -1.356839688335358     -0.232821373376781     -0.700772707881230
H      -0.834968923482998      1.442575779764662     -0.611840699037826
H       0.644705478735679      0.939289225386842      3.402328359540855
H      -0.651200494702744     -2.019610037458215      6.656040696406114
H      -1.634156307825425      0.170666238998170      4.375284281463461
H      -1.757921775720914     -0.764057976659074      6.726399518319363
H      -1.038220636101229     -1.481249292555294      4.216025939650391
H       1.593984912881988      0.711888821067745     -4.254736495534917
H      -1.250194981859858      0.962414289262621      1.901879659996613
H       0.130117334887925      0.745761042657908      5.958654463637300
H       1.005334401874252     -0.759136684543706      5.636377241610283
H       1.078630281661674      0.864161032123498      0.792194529745959
H       0.647921291658129     -0.864418655711020     -1.968432959755884
H      -1.292343672030521     -0.787764887946396      1.790338349465165
H       0.983273304922342     -0.755933861185649      3.081119249713588
C      -0.464943911109710      0.406989205230085     -0.638712254551034
C      -0.608985925287461      0.069757355266511      1.876465868486594
C      -0.719242722755726     -0.437861148309035      4.352854716135639
H       0.810290346832945     -0.854069823606731      0.558999430622718
C      -0.026387635387408      0.925155278269691     -5.646162477606520
C      -0.271532475859723      0.669730790101140     -3.163564792609663
C       0.289910018620024      0.110998403466000      0.649959764621876
C       0.392927546825317      0.201722754044074     -1.877273868189679
N      -0.745112317826140     -0.989960342721461      6.755547983787666
C       0.166245793172327     -0.026808427859675      3.185239081170238
C       0.010730412910191     -0.303407704737348      5.672613524648742
C       0.570846540934108      0.333579477335599     -4.386446121842385
