35

H       0.679238300151981      1.268186546472080     -0.304989991451505
H      -1.144671152289496     -0.493645110968309     -0.265843764839296
H       0.479996883551009     -0.515535375814159     -2.797281406136588
H       0.065692080744687     -1.730126148751473     -0.603983990828041
H       1.234370004695055     -1.184289993459885      1.556468283021057
H       1.116130844647635      2.488361595093863     -2.637211564779469
H       2.734245367229623      2.285532125440255     -5.181283432633204
H       1.467127870820974      3.430192439332117     -5.047548277465035
H       1.070834966499920      0.483639896187931     -4.981219423200908
H       2.327920282593022      1.230815502068989     -2.940514337118650
H       0.113236286364772      0.148300199251838      1.827784088837588
H      -0.647531294792118     -2.826965933457974      1.763924897452514
H       0.349043635846958     -2.124774069229996      3.949208784613778
H      -0.578963340029470     -0.630360206630265      3.900748471227922
H      -1.665324537597558     -3.430192439332118      4.492259111688434
H      -0.946725278918303     -2.017701683354666      6.311585243633524
H      -2.734245367229623     -2.108185712671900      3.951277625953005
H      -1.933451660177077     -0.749765703679356      5.754194107465934
H      -1.808293986500640     -1.498886039708212      1.845879258970103
H      -0.160511298294279      1.734830633273038     -4.687714107581723
H       1.846038601978400      0.020169937765661     -0.747125288095376
H       1.485367311561540      2.366743982996956     -6.321009819119792
H      -2.605650618200772     -2.185040660148036      6.321009819119792
H      -0.659243028115219      0.763546312795137     -2.370748325563511
C      -0.776537285946419     -1.787510720273270      2.112866503671325
C       0.194994016786634     -0.857985235521456      1.380149127910593
C      -0.079896729893020     -0.748689134995785     -0.118374758182535
C       0.400593908859773      0.463389256817434     -2.296387208769760
C       1.258252652359912      1.477354071696837     -3.055531339039146
C       0.893972367054041      1.469289180471561     -4.531446071824393
C       0.780183072535094      0.300144992084338     -0.826292134418925
C      -1.759450292484268     -2.339218524941367      4.400093304124467
C      -0.613318576303742     -1.698380335139385      3.630077878033705
N      -1.812146362764231     -1.783446852000274      5.790254937866355
N       1.710185249513464      2.450282716992266     -5.312278732889750
