18

H       0.850053892307361     -1.435728052745622      1.941210466519391
H       0.943834550425264     -2.402739250423890     -0.351421253359335
H       0.906040408077402     -0.538814096009355     -3.300639260805626
N       0.045528494404459      1.024596775423063      2.579159011121942
H       0.640098402160939      0.580271474574385      3.300639260805625
H       0.117855079452502      2.061318886709058      2.634548232606991
N       0.307946477281436     -1.059338667231390     -2.626673243207379
H       0.489943757323251     -2.076501808344023     -2.674603524780260
H      -0.082695304714333      1.444460802692337     -1.981832727828842
C       0.065797638327761      1.361218958741095      0.154442561997329
C       0.132195917695845      0.823365444809086     -1.120841332479422
H      -0.943834550425264      0.789224082968696      2.810302158745217
C       0.314471356258344      0.524027922646635      1.233089861629042
C       0.427301289042736     -0.521852775096896     -1.278755134889707
C       0.724477928168019     -1.348374596031172     -0.206573498159427
H      -0.673604877984372     -0.930490080209045     -2.943756796813286
C       0.673350239876891     -0.806523270105230      1.075989170258063
H      -0.209096368807621      2.402739250423890      0.297999245610721
