32

H      -0.116102950845485     -2.342241144587420     -0.538689385619383
H      -0.556326705279015     -1.783493709885531     -2.119334901724305
H       0.876903741379936      0.198996470920894      3.334180102810655
H      -0.988425165194458     -0.224375784880969     -3.342686754186002
H       2.216122165642341     -0.312882714232371     -0.646479387245841
H       1.199694408997741     -1.404897066435745      3.520782658275105
H      -0.357995608807906     -0.922737600157943      3.308575798771671
H       1.646433528530362      0.974117920022358     -1.673772770078210
H      -2.216122165642341      0.427076211557647      0.597273092667638
H       0.261440318260845      0.895301412755540     -3.352059615179091
H       0.103320799932819      2.342241144587421      0.517315500602027
H      -1.570662274108694      0.775688641120123      2.183937640901735
H       1.653160825010721      1.492333522600875      0.723019223298661
H      -1.900263849929047      0.768457065049310     -1.333013270924172
H      -0.515298547852309      1.893042222357693     -1.332387940833724
H      -1.297705855387850      1.381902880416467     -3.520782658275106
H       1.837041498220560     -0.824596255306760      1.331433956121045
H       0.410550084134584     -1.902381376911453      1.301839226658717
H       0.573442498390684      1.778823503360208      2.093573841369753
H      -1.741124418681649     -0.888889743897124      1.635575505277806
H      -1.656594352855432     -1.504264590039549     -0.768874038453221
H       1.558660018247161     -0.691280582503848     -2.221736413792001
C       0.607207327462667      1.519938167302767      1.030800926464079
C      -0.036358463542558      0.164850926592667      0.756953866528890
C      -1.462879172003832      0.117294886627722      1.317301663326574
C       0.008771378275951     -0.157148081005138     -0.781114586354625
C       1.428243706538663     -0.045265702012619     -1.350646608156847
C      -0.836003291234757      0.873897126040799     -1.537029739559206
C      -0.608886629913181     -1.521400249791811     -1.059194266531704
N      -0.696002141826523      0.708197561963454     -3.014572284158410
C       0.766053813780368     -0.896513246964878      1.519957203040728
N       0.603543293171297     -0.736316694418674      2.996755882935701
