20

H      -1.342784696832429      0.048082457481708     -3.123059916934130
H      -1.323128129676608      0.227909995789499      1.950111420975939
H      -0.236282180395067      1.345685397905848     -0.713333184935270
H      -1.431587218237872      0.051997364602268     -0.604310505204889
H       0.199341066753965     -1.345649860735823      0.691858051546598
H       1.341114339643536     -0.245179086922125     -1.905387119951967
H       0.095420712786881     -0.272413475558809     -3.924427576734871
H      -0.146638817299332      1.201823287691150     -3.134664910870968
C      -0.353938200887804      0.257254640956345     -0.639763272473220
C      -0.246281309967818      0.399914077472117      1.854169731123984
H       0.228819109541297     -1.203870776555968      3.094843714647067
H       0.067219426707998     -1.479988850460585     -1.887299809911606
N      -0.318025913570406      0.180981742620907     -3.100686064231096
H      -0.065887789831894      1.479988850460584      1.871843664203147
H       1.431587218237871     -0.055325085059615      3.011490378471547
H       0.041534774533513      0.246667728925853      3.924427576734870
H       1.406280979504364     -0.063818209684413      0.563707701229935
C       0.258783735072010     -0.402241660549691     -1.858702879132283
C       0.326247181372816     -0.257503896154194      0.614945010336533
N       0.404453434454386     -0.183515496323225      3.058762416357669
