41

H      -1.216746658914956      0.446573735224319     -2.747177624102061
H      -1.213690561172649     -1.914228807098770      0.929304040457147
H      -0.145563973316557     -1.060352500879105      2.779519894280735
H      -0.679147123346837      0.669557975247374     -5.289719674245543
H      -1.093021402362986      0.424285794659256      2.832481465838798
H      -0.285469261528600     -1.049953026892034     -2.737653176891721
H       1.386161236157522     -0.050687659438085      1.094694151470176
C       0.532005590066845      0.333223117760481      5.084265775260087
C       0.892924748447195      0.620912495755941      3.642011575609386
H      -0.483617027734825      0.657909516176264      5.329344961285868
C       0.738997831433906      0.622236681159741     -3.634907047668390
H       0.293166680616563     -2.109204740105389      0.016864732810618
H      -1.249984934555647     -1.916927449356075     -0.834055868094961
H      -2.410552756841848      0.352802956882565      0.956338172436295
H      -1.722161005270048      1.718619077565035      0.060333992052140
N       1.256751879465323      1.074256416075455     -5.979771128223611
N       1.460521259818471      1.090248179462044      5.975375692856700
H      -2.449917215913994      0.354970219817345     -0.806846484136276
C       0.337459749824001      0.332604660739125     -5.065980235495525
C      -0.088915038279664      0.026539474661894      2.638250718378343
C       0.379610718048623      0.371602891443978      1.229534821302080
C      -1.842439313811084      0.628811667392041      0.061920228869260
C      -0.479389294852450     -0.070489776424181      0.030118065590036
C      -0.671577529432608     -1.589045627011858      0.035632808949572
H       0.502156809777663      1.463339307869699      1.166474094348416
C       0.323175973824688      0.370928478029643     -1.207655060515126
H       0.934101174800405      1.710029350709442      3.499016108219839
H       1.055787176063829      0.869849794464289     -6.968385202109281
H       2.246679380441803      0.824162298930954     -5.796713443542260
H       1.149774656668624      2.095381413925612     -5.838895542785471
H       0.412639135352009     -0.730267762008776     -5.315720047544706
H       1.753366263727145      0.236220949612735     -3.464515519391499
H       0.790295864603499      1.711477141800426     -3.496957254468055
C      -0.210366325661155      0.035702495496261     -2.596092656542611
H       1.332088970844231     -0.058640750096087     -1.122314543168734
H       2.449917215913995      0.845261226791358      5.780565134172742
H       1.344168762959853      2.109204740105390      5.827826019968230
H       1.276396844133226      0.891970142162942      6.968385202109282
H       0.456707270940974      1.461473198069918     -1.145957043558328
H       1.903439109038251      0.238960167039326      3.441421584976379
H       0.626232722650137     -0.727532616002871      5.336545025720365
