35

H      -0.457202740741641     -1.391730940077920      2.425397182678234
H      -1.236397928290783      0.203396376854960     -5.253889583641753
H       0.260486136122701      1.637506696607650     -3.795781336647372
N       0.520431968821292     -0.026641730920657      6.245593169119106
N       0.606978002420988      0.528454981172856     -6.207313010171207
H      -0.443488715838390     -1.095182876727416     -2.567032079666218
H      -0.066081961314247     -1.130623839918254     -5.113868817937550
H       0.084344784199511      1.615448110436995     -1.215265959967740
H      -1.617675367431579      0.258548526017704      0.018469209503934
H      -0.575748175989341     -1.162164896798179     -0.076042078521954
H      -1.517226772325643      0.303559545162463     -2.643392557845061
H      -1.508286751015076      0.007328189156118      2.662252513734094
H       0.320591463860286      1.191389441077741      3.904691183045211
H      -1.275410904152458     -0.314509369920710      5.201324451701765
H      -0.095367991050885     -1.637506696607650      5.051289143475829
H       1.392622048699684      0.285694236440159     -3.644912003748706
H       1.200684372955806      0.254405287778661     -1.206611282372696
H       0.145199840937208     -0.452805099895769      7.117538112284041
H       0.270673484818303      0.155341121648680     -7.117538112284041
H       1.617675367431579      0.281785997293193     -6.121373728008475
H       1.205602011464450      0.086602875833603      1.219235352799695
H       0.106167198717910      1.449646240420203      1.394675336109160
C       0.337649856085440      0.094993970679049      3.787449537981987
H       1.540327828068431     -0.244453120924442      6.184291315493809
C      -0.179456057099688     -0.037356862078012     -5.072596234857214
H       1.396333654447462     -0.190019244588340      3.664695665497563
C       0.126892576373647      0.511728770622462     -1.242013694985067
C       0.135024839498877      0.350205037470027      1.288702885269780
C      -0.452812185657110     -0.293572589445641      2.542142831998405
C      -0.560678478831806     -0.059858714155704     -0.005465300782962
H       0.427650476634897      1.007566775890304      6.311562151507932
C      -0.456715763015047      0.008853459934451     -2.559683319530727
H       0.530620288723592      1.566395341710889     -6.229955778156079
C      -0.210931849854108     -0.544000333202332      5.051786041410923
C       0.323808782781168      0.536423192158687     -3.759692940706860
