32

H      -0.818064766196318     -0.116281275743139     -3.589477690732505
C       1.545193171157950      0.765795168305427      0.660874094316076
C      -0.674412807612020      0.395844094375715     -0.533114639497596
C       2.554332591678668      0.181513853076414      1.651947205122815
C       1.984546409495570      0.153508854245626      3.060911365395034
H       2.541414653639429     -0.565508177932525      4.946974080714163
H       3.845644606707451     -0.357884926297801      3.917042042861645
H       2.795272375955569     -1.660087966829479      3.721653801722907
H       0.987901635592666     -0.295472591100239      3.099166905587413
H      -3.845644606707451     -0.460401804566464     -1.354846846708002
N      -1.730993371472504      0.217923019483070     -3.943691815601175
H      -2.074429900957772     -1.143021627985146     -0.068288258165316
H      -1.215039229952050     -1.422986657095409     -1.568423498348771
H      -2.866360681616689     -1.453836631007136     -3.408692117112280
H       0.933540649870677     -1.026390812956318     -0.354254047911024
H       0.046804253975412     -0.725568390315094      1.138094003448835
H       2.822580508426166     -0.839767623808129      1.341103635131857
C      -2.906621739361783     -0.375184306236919     -3.227805113473209
C      -1.707223663326436     -0.639263645075892     -0.970012612744071
C       0.468833227406141     -0.234800724532587      0.249877157982260
C      -2.903466520604456     -0.057165611978276     -1.745145156765050
H       2.074860257600084      1.103158970062843     -0.238801393948171
H       1.919797447344139      1.160931320754845      3.483522532377188
N       2.851426235858272     -0.654291757708796      3.969220107083974
H      -0.273416780826349      0.937303661289700     -1.403101666166422
H      -2.957797793659002      1.030439153085929     -1.599652575252921
H      -1.734938903084786      1.253136716088347     -3.868307076916138
H      -3.797100707390312      0.018590510683552     -3.725111370531467
H       3.481721856769140      0.768091910329963      1.656599344927711
H      -1.170542849808485      1.145629315927088      0.097284125866507
H      -1.770569211867002     -0.022710923094202     -4.946974080714164
H       1.081134447474185      1.660087966829478      1.103840234275626
