24

H      -0.728633276194527      0.775196767236241      3.289872820737578
H      -1.663023591801493     -0.691346463358749      2.985087761152736
H       0.250936426351759     -2.030109131895216      3.441952557981336
C       0.493251582541406     -1.045036584953520      0.739422793363380
H      -1.404817753082866      1.730939299189232      1.176392454995216
H      -0.850857234992446      2.030109131895216     -1.206742396362125
H      -0.341228606824561     -1.277843213220951     -3.460403708236639
H      -1.287345412830088      0.112592094618712     -3.447396871049959
C       0.820978407020624     -0.866366654442348     -0.600967836679692
C       0.691537483371945      0.417158177247364     -2.757598145905885
C       0.346405412800177      0.236168536756427     -1.311388282837834
N       0.314221193678224     -1.006009527760972      3.612596533245517
C      -0.478160171411941      1.161747476060666     -0.665906375984849
C      -0.314375883172772     -0.109178191988265      1.389313950949219
C      -0.798316693228240      0.987800707019671      0.672381948544755
C      -0.683230225238764     -0.221431084261955      2.840132630003724
N      -0.327641455911898     -0.251294078559409     -3.626062264122179
H       0.153539656735353     -0.863252499242975      4.618007490873099
H       1.294026083691309     -0.710943809272348      3.406744996448518
H       0.891703509609419     -1.912882235813067      1.262069301282153
H       1.457286820831092     -1.594746905883387     -1.092829441682587
H       1.663023591801492     -0.016417780848834     -3.007362171511051
H       0.697336697851640      1.471972629513613     -3.044518049737679
H      -0.106531732557501     -0.079123285369479     -4.618007490873098
