17

H      -0.103526045919985     -1.402758336791638     -1.318794929095153
H       1.350698028617115      0.158182581499005     -2.444192224355716
H       0.143045604883552      1.336207742933855     -2.457614336957624
H      -0.035916063849511     -0.079029065719353     -3.336045093882380
H      -1.364034732868678     -0.145382551280502      1.352567120865072
H       1.379769270215503      0.150653259465247     -0.012942494460073
H       0.012739347972957      0.008385552959044      3.336045093882380
C      -0.282575473322691     -0.296465059772557      1.269982848901828
C       0.291212730432592      0.298244767103782     -0.005829496893909
H       1.385388423737208      0.232252416288213      2.419194045430463
H       0.101920863859645      1.380247258856148     -0.018117938629612
H      -0.074932881031900     -1.367554244397470      1.359713641127793
H      -1.385388423737207     -0.172874405808684     -1.327537696703629
N       0.355483430007125      0.379243241203915      2.437479799732794
C      -0.303756235641355     -0.328396623574186     -1.256377151374158
N       0.321465617963140      0.311010184807262     -2.451740606392775
H       0.170041532006037      1.402758336791638      2.420176058670623
