23

N       1.815883344227061      0.128637128476826      3.065714358736267
H      -2.536967166056084     -0.380222629813225     -1.351195941778182
H      -1.844692288767829      0.977207421919220     -2.272630796991960
H      -1.586838281019350     -1.853435526250902     -3.127355020108446
H      -1.244060719089505     -0.463290360951440     -4.002448901847768
H      -2.832290803987305     -0.858230564008056     -3.601344082539683
H      -0.304336754266121     -1.390279919336622     -1.076396639590137
H      -0.074300956640107      0.727389506773347      2.458390909717448
H      -1.073504880865625      0.525733340185567      0.453000854607316
C      -0.163380250793635      0.557823574308535     -0.160593935511116
C      -0.366074472384927     -0.334512671948252     -1.377217075592367
C      -1.718317477319276     -0.078657911468289     -2.014218184505683
N      -1.854431282106770     -0.859109513249071     -3.271384068759871
H       0.428318956279709     -0.176455283001672     -2.114313381683354
H       1.970971735218280      0.284812830844480      0.213407873550988
H       2.832290803987304      0.202882387510070      2.868219177208193
H       1.595915752254363     -0.886800387547237      3.103099631915285
H       1.635826045512662      0.513407411159042      4.002448901847767
H       1.216686794315557      1.853435526250901      2.024841142443284
H       0.931100153813080     -0.977495037906173      0.864732655471387
H      -0.041173804065604      1.603191163708993     -0.479520001728020
C       1.007450260879558      0.106331011505989      0.709387227219384
C       0.941472423756089      0.794588099083755      2.059236489599696
