29

N       2.411781932784849      1.377202537369657      4.345089501168156
H       2.698100969177292     -0.328792892504046      3.171987367174422
H       1.193772036860349     -1.046138497907917      1.285568083688345
H      -2.108262640974453     -1.220787416410262     -5.023861483625099
H      -3.379053181627964     -1.039206317725082     -3.946595077130521
H      -1.526908209870625     -2.360933206772653     -2.987232093964527
H      -0.443474088254066     -1.040345622660134     -3.433827569760527
H      -2.572724738345596     -0.946832582951480     -1.231244516065178
H       0.445159171393885     -0.463948402193282     -1.455814716085150
H      -0.288523052602935     -1.809285212920910     -0.613486557021131
H      -1.214284708432831     -0.250722812519966      1.110391017251898
C      -1.443649894117137     -1.271558281714298     -3.056680494909647
C      -1.671540093112171     -0.568678749869278     -1.730224932257784
C      -0.432631939792144     -0.745803228523507     -0.859036624906047
C       0.934165473281653      0.006716658784168      1.102789776374028
N      -2.384311640558465     -0.818547850151681     -4.117076280824287
H       0.687587496153252      1.810342390605921      2.279124105395571
H       0.273480272918795      0.328112267835516      3.129938825966653
H       1.699249921096326      0.397713871210778      0.412479548419920
H       3.120798516996851      1.210483166015580      2.385953158658937
H       3.379053181627963      1.385955603138937      4.715726562905555
H       1.796020287946980      0.895526938705885      5.023861483625097
H       2.081626495656621      2.360933206772653      4.273617326104684
H      -1.828300340797499      0.501128323897051     -1.913641875415325
H      -0.662374013718100      1.129112336351858      0.177656619436380
H      -2.324066117950281      0.214626526273108     -4.209031319356327
C      -0.426638261147871      0.080646643314473      0.418428551563593
C       0.989278803755073      0.762292351749242      2.421023528468822
C       2.379982655676775      0.707297468593787      3.018302687535666
