35

H      -1.235247983801625      2.546928578261252     -1.196622834518632
H       0.443318580829111     -3.727055714800185      1.990046611637130
H      -1.580869875202455     -2.552011879817059      1.315962382758572
H      -1.202765964312015     -1.178178840790836      2.344487289106349
H       0.818984430958662     -0.689915117779532      0.968773156284113
H       0.360733954526738     -1.947317853746754     -0.171937929547047
H      -1.630556420315695     -0.719557551207236     -0.837537015002155
H      -1.485969533826754      0.373569290876808      0.542457167157066
H       0.635877357171507      1.275814278307587     -0.362768995618962
H       0.565133167530630      0.140585814810965     -1.707399080265795
H      -1.726790787912166      1.264758623729348     -2.298298631806867
H      -1.158766052665204     -3.645926047390351      3.938557895512899
H      -0.144788111503369      4.726617353724023     -5.301585324979065
H       1.099118257558666      3.713493676023752     -4.832563243075487
H      -0.193150007454219      3.095154279495496     -5.695919900547671
H      -0.659752072454250      4.402198862976952     -3.101236424423573
H      -1.690179893135255      3.245845644396340     -3.965180673281775
H       0.248713038534191      1.533075010168627     -3.674077857729266
H       0.974391136502128      2.674747838225143     -2.550783726141240
H       1.184017510453781     -2.232992630614262      2.559792195632712
H       1.726790787912165     -3.305759726698983      4.527118532497671
H       0.823034801613437     -4.726617353724023      4.432006245473493
H       0.588132889745787     -3.674343799863895      5.695919900547672
H      -0.477483564208836     -2.081300720154308      4.416710763623419
C      -0.046202967143083     -1.218947076591359      0.543577646486183
C      -0.907653888781592     -0.203133396052438     -0.190720235977279
C       0.229355281611292     -2.773711325163144      2.493844216682817
C      -0.752893550160004     -1.932911014613108      1.684678557571479
C      -0.261846247262238     -3.022368011570182      3.901715447818468
C      -0.848161213975844      1.750454948263686     -1.848320418216462
C       0.013520144127274      2.334235827059409     -2.959078234408768
C      -0.656389173200566      3.479429252202374     -3.689649210320498
C      -0.056082721239141      0.738991861149310     -1.027701540493734
N       0.072186180099760      3.772773566625887     -4.961506294445092
N       0.793697232693522     -3.720558701328619      4.688380639719991
