26

H       0.765087517521480     -0.010723824872894      2.418676539105494
H      -1.326774480656881     -1.568451090772891     -3.741353145814887
H       0.040320939255691     -1.640469794796281     -4.706406080149661
H       0.990313164498491     -1.287316944466873      0.217136146392560
H      -0.438681262374808      2.790300975920295      2.218039980405107
H       0.932084162908029     -0.449840360903996     -3.050170706218323
H      -1.153483069546771     -0.374664655930613     -1.743150483057457
H       1.351744762039917      1.339660501450241      1.451041525253551
H      -1.212483713421931     -0.280288736439577      1.017239829280157
H      -0.824905828670496      1.169246604312556      0.085743062799665
H      -1.355910263430204      1.430856042739384      2.891656177778726
H      -0.877848180077017     -1.999921828360055     -1.124093970589807
H       1.279741093262433     -2.087079003492616     -2.482472859543153
C       0.465112533373177     -0.492115002088811     -0.328411444261524
C       0.476988332185965     -1.372020799370810     -2.680779734718061
H      -0.405360363945314     -2.962915448159040     -3.759441504916843
C       0.440712039546988      0.843137017440319      1.812325745035498
C      -0.346993049302698      1.803983435768967      2.684778374465372
C      -0.369339399014727     -1.086387710127987     -1.458588504236490
N       0.327979605502361      1.994980679632222      4.002894585414104
C      -0.378524076579741      0.330235235813509      0.638331108985497
N      -0.351453581293276     -1.923427251804174     -3.795782626236498
H       1.241195574982913      0.161535079126173     -0.754590316883768
H      -0.038525867120947      1.331902579420714      4.706406080149662
H       1.355910263430204      1.849044355071525      3.925296727748806
H       0.207978982247719      2.962915448159040      4.355474481263991
