32

H      -3.905278247712350     -0.678171618794622     -4.302536945474861
H      -0.259020849225147     -1.298028479341595     -0.427798581135788
H      -2.728725208597401     -0.474877653224379     -5.446485958138025
H      -2.574837731010564     -1.738714306434637     -4.357599591555964
H      -1.655698266706785     -1.430294748428495     -2.207874259091319
H      -3.103781854348475     -0.526647054872421     -1.775662294536087
H      -1.299850142139634     -0.465416264177962      0.729713597681497
H       1.564666357472395     -1.346170027557149      1.307457094334042
H       0.583558801469012     -0.431960080219457      2.434125515443663
H       2.843236252304000     -1.045620973471979      3.745061043276651
H      -2.579537089023018      1.139673587077768     -3.613240898700688
H      -1.102520473982633      0.234996259196148     -3.967965201580297
C      -0.575354554340756     -0.303086697068461     -0.079140673168391
H      -1.808722757217289      1.294680910238515     -0.856286932319271
H      -0.416201552441231      0.885898272555101     -1.844948601244382
C       1.310707951405310     -0.325144387468541      1.619224091080616
C       2.911262340352653      0.031288162409911      3.557917850994635
C      -2.079415018185488     -0.416193211815799     -2.158158492872640
H       0.338927622155651      1.419483320082918      0.829712169654270
H       1.356830627887313      0.570908372290249     -0.340865571180750
H       3.429842451253301      0.133237181304795      1.483454815377293
H       2.446985318316615      1.469227727302325      2.058585008885160
H       3.905278247712350      0.380901598140481      3.854184613258457
H       2.044004130499412      1.738714306434638      4.402908387402887
H       0.952377188959558      0.502481931326615      4.228963947395764
N      -2.878770656636215     -0.752002007330674     -4.468728133346008
C      -1.220667953543374      0.454192013203402     -1.239075423779094
C       0.639304252487467      0.420827826179771      0.476177395796844
C       2.572466628360400      0.379340120462491      2.121590763971207
C      -2.116146233131745      0.150933365826539     -3.563478770640454
N       1.936224759822326      0.704748821320281      4.467955682560168
H       2.101197174712969      0.420013865468357      5.446485958138025
