38

H      -1.579204028180499      0.112801073867736     -1.737267304859932
H      -0.229182072288602      1.428582487451415     -3.307362055583752
H      -0.622979786161741     -1.336445498375603     -4.335031427762194
H      -1.812785566711843     -0.133882111252321     -4.292067163300503
H      -0.436185674363342      0.059506388006627     -5.250707784594126
H      -0.423071563837846      2.257296822395027     -0.894964447093042
H      -0.930829342735032      0.021289479292485      3.497673319245544
N       0.958186712264972      0.445729379834360      4.290742106871982
H      -0.548787463915012     -1.308698251502350     -1.955701332173326
H       1.013016731121127      0.163623672243052     -3.389291953086212
H       0.982037894379388      2.150281551557306      0.164193241786786
H      -2.194095626742137      0.127981897515526      1.785169779418657
H       1.182601702602879      2.024324405618726     -1.578562514393658
H      -2.377607632125427      0.195517686766135      0.043286969695754
H      -1.603983473303403      1.546503983816066      0.903334895651771
H      -0.959495369039884     -2.151553217216039     -0.125901370339617
H      -1.145660328447087     -2.017238960966244      1.621829207879371
H       0.824478160848875      1.474967437220189      4.249491314244385
H       0.243432185134916     -1.317393171027877      3.403311599979891
H       0.577466071619019      1.344870244127663      1.919208757543548
H       0.455241346299777     -2.257296822395026      0.931075096626429
H       1.596570714466308     -0.093036808793443      1.748180208117227
H       0.731050507208485      0.133398954256706      5.250707784594126
H       1.969273232854167      0.230295021074077      4.137698335023768
C      -0.497890316042392     -1.742461466895049      0.778766696809485
H       2.239190782525585     -0.104329896920285     -1.739115714166562
C      -0.538069713377945     -0.210629082352041     -1.879892110023742
H       1.580271212160158     -1.560504687954970     -0.980272024798969
C      -1.696247702848925      0.453304200782150      0.862906207698749
H       2.377607632125429     -0.313293290762750     -0.002821355875479
C      -0.325575162011324     -0.215842516698648      0.700604375544947
C       0.528576355200128      1.743168061706157     -0.742380213971486
C       1.707263961861880     -0.477925996967802     -0.854022736463283
C       0.347409485423031      0.216089215795725     -0.677574523583880
C       0.110097185642292     -0.236369583675329      3.264487826833796
C       0.558830626262074      0.244465091141403      1.887488502456933
C      -0.054305911533802      0.349228681279520     -3.213580165098868
N      -0.781956888848122     -0.304680802572477     -4.343160753534699
