32

H      -0.615172200332459     -0.757401167713011     -3.456857356244580
H       0.070136121618722      2.258357530254361      1.696240182845916
H      -1.423729400838409      1.642131751781966      0.976013444820837
H      -0.156902415745963      2.385598348656742     -0.034138368691303
H      -1.085413142019818     -0.438717038016783      2.157748116466378
H      -2.149014642068891     -1.098498742166111     -1.473454230577360
H      -2.041903790211880     -1.246831071214539      0.285371363843527
H      -2.335815548952056      0.324451933396029     -0.454564973721785
H       0.398194008126195     -0.603512834288437      3.945627889329485
H       1.057041859166365     -0.643471249946812     -3.158554015314640
H      -0.867054395270833      1.270649028339323     -1.995795740243263
H       0.264914083695958      0.576077023778788     -3.945627889329484
H       2.335815548952054     -0.480001280593743      0.701482640932285
H       2.210024962765468      1.161899374272100      1.327858606789889
H       2.174750251704252      0.871603075082627     -0.403312311906019
C      -0.023408274310347     -0.505813231418493      1.887909787048775
H       0.295572468888228     -2.385598348656742     -0.013559424771450
H       1.764973009343452     -0.215816661295261      3.029563607358623
C      -1.776778800505794     -0.609507628376035     -0.561644186068109
C      -0.340914926625729      1.727989275261065      0.824909024468976
C      -0.264864191172746     -0.371777351949198     -0.656432993104758
H       0.614589977402801      0.927646062553977      3.345557892202475
H       0.000564364344134     -2.268531303414001     -1.727788270090328
H       1.508016557484964     -1.615293373104318     -1.058228190206841
H       0.237067524825962     -1.562352139011580      1.759617899162810
H       0.877597107819939      1.178158057285462     -1.753759281775221
C       0.304477311075665      0.345692707030215      0.642445238547840
C       1.829615752107356      0.480969104613360      0.557467456991187
C       0.432445847966864     -1.723745635738023     -0.877051329608334
C      -0.030269765332234      0.577264827170918     -1.864571809312147
N       0.740165209571957     -0.070159797717412      3.113197067520032
N       0.152748645758912     -0.122387809566154     -3.176032210597793
