44

H       0.492343193603188     -1.562227911661401     -5.818848672546631
H      -1.769678952529859      0.639385665695751      1.426410370898111
H      -0.472952717400325      2.403135160251982      0.155216727477682
H       1.769447207323178     -0.632330298967081     -1.427744382911507
H      -0.919177422736861     -0.754358061611104      2.094643458361007
H       1.322195747447616     -2.767744342876190     -5.045177298401391
H      -1.091285404607035     -2.016778023176184      0.566876301961445
H       0.989384272660467      2.384344849064107      1.151991222950048
H      -0.514912675241984     -0.819344968527694     -3.474806826634669
H       1.093493247752918      2.021801480825907     -0.567156271306404
H      -1.965917345857783     -0.323134860518454     -2.014571591874376
H       2.143376577299427     -1.619266577255482     -5.965932735697876
H      -0.989892110241904     -2.379766228428046     -1.152964469828592
H       1.398150324750605     -1.263607841263255      1.497284632948713
H       1.966317513756747      0.330028070250359      2.012759514327797
H       1.533611880294434      0.176791682151435     -4.467238316001652
H      -2.351595512405281      0.252135027011745     -0.400081951274560
H       0.422229497180626     -2.173914904294052     -2.830741461895182
H      -1.398635469672435      1.269618697186475     -1.496080718095656
H       0.917604888151744      0.760183493624286     -2.096783742810960
H      -1.325991541505346      2.767744342876190      5.046823062889072
H       0.514640626531242      0.825251769620368      3.472622616977036
H       0.474096671574613     -2.397302237983753     -0.158349539220992
H      -2.144898161902002      1.616329110785127      5.965932735697876
H      -0.494077819749379      1.563245614406883      5.819173215951190
H       2.553733562481226     -1.062726197126759     -3.717187896295330
H      -1.530614889626968     -0.176137483949874      4.465207452827956
H      -2.553733562481226      1.061383327420650      3.717166890688800
H      -0.424920695562936      2.178970123663283      2.831702745074365
C      -1.544549200640786      0.860540092771689      4.102396084981903
C      -0.467745547901480      1.103631914898629      3.059865377558395
C      -1.564882054515340      0.237064205274188     -1.161291639003375
C       1.545091323046925     -0.859485204050017     -4.104088354323617
C       0.467040837441819     -1.099050176362153     -3.060335694109949
C      -0.254818484609030     -0.385194508567752     -0.649614839808805
C      -0.475807861819538     -1.872310555736455     -0.325368610279090
C       0.255043715753637      0.390380424494873      0.647818748426555
C      -0.790864196484429      0.295740603632275      1.793727414287012
C       0.477126669260428      1.877890096491537      0.324092369843479
C       0.790103867821681     -0.289423207192016     -1.795012859327746
C       1.563969223423078     -0.232112919132622      1.160130684409065
N      -1.369739783979426      1.748752027244567      5.295062553620360
H       2.351242784739529     -0.248822514373690      0.398833855853212
N       1.367709183852420     -1.749470981313850     -5.294386301930988
