38

H      -0.396026881370869      2.270366476083806     -0.674255578859841
C       0.148039158721520      0.633202181887851      1.856213107022818
H      -0.168332779168374      1.680961181302096      1.772684814936113
C       1.790827708088667     -0.413223214980542     -0.630726780123011
H      -0.112092639698471     -0.513387877703997     -5.217400980228736
C       0.560593033419050      1.750661351377511     -0.734804786446656
H      -1.466731958339682     -0.368136232825554     -4.237829239605240
H      -0.492723057437185     -1.726325337007334     -4.137034642778650
H      -1.331060515976038      0.295190272237864     -1.949504918989661
H      -1.329117982430177      0.209137681333946      3.428144074100610
H      -0.627631847724981     -1.309909073058740     -1.780688591812424
N       0.439813927933010      0.969587682190011      4.259628547901940
H      -0.445498195591894     -2.270366476083806      0.044085285283575
H      -0.982572111497670     -1.994501567119828      1.699484888600756
H      -2.394058386344329     -0.496633812370795     -0.221845791674874
H      -2.430924403454251      0.013128507206611      1.458496998947675
H       0.205491652067456      1.974499823523328      4.145300114919280
H       0.057788849396404     -0.902263223278284      3.419440669622640
H      -2.066989807336576      1.185492018385270      0.191828425623203
H       1.317794159926573     -0.558967421961723     -3.244411325473813
H       0.471268000833179      0.985854891739799     -3.487402444050947
H       1.203487524147814      2.132877192812311      0.058100828613391
H       2.301807012567487     -0.267568763665787      0.326466207297802
H       2.430924403454252      0.028419972033507     -1.399634795896062
H       1.739752145438819     -1.490168640300386     -0.822341312135955
C      -1.905316150135012      0.153431531201226      0.508692101558553
C      -0.412643270127834     -0.169218473046907      0.659443948487780
H       1.022717774997611      2.035089213229664     -1.683785618008785
C      -0.265125383935432     -1.668862637593393      0.940804128462368
C      -0.254548979072220      0.129140570595282      3.234442815489102
H       0.182692994895106      0.695648398882203      5.217400980228737
H       1.467855316221350      0.870845325786910      4.163616212031169
C      -0.379647597311090     -0.244710989299172     -1.883870023784791
N      -0.488430886351713     -0.696563982603395     -4.277366888102820
H       1.245148641537892      0.629680872333880      1.817459064292747
H       0.732767768100766     -1.919075126933768      1.309320122384818
C       0.397215703433371      0.231501005787386     -0.641960240653221
C       0.343149961013470     -0.064281726254756     -3.209862183754226
