30

H      -0.777247313833310      1.700726447110015      1.551275217395695
H      -2.353001156562899     -0.026740565511206     -2.506630259470973
H       0.812988822029670     -1.674454017454943     -1.691578413696849
H       2.333667444427643     -0.841046355683661      0.015379595810030
H      -1.004639109277135     -2.683093368460016     -3.116253585880804
H      -2.940413261993882     -1.730229357648814     -4.424315025631479
H      -1.524315199763167     -2.040706668403452     -5.286943290140278
H      -1.938361969448128     -0.482142128053201     -4.834642140348428
H       1.771359970106166      0.099632010825715      4.539363228518713
H       2.940413261993884      1.268874462027706      4.432561827068223
H       1.500994735626641      1.569259476028332      5.286943290140279
H       1.306131000481633      2.683093368460016      3.186046234119345
H       0.189681137024701      1.311489031937046      3.318049098288801
H       2.411820426212264      0.026484023471881      2.324445856957054
H       2.651446153256812      1.588510829582612      1.568240473100575
H      -2.301675774569639      0.850624519207469     -0.143015084560355
C       1.884067076599500      0.927232002681614      1.990092082392357
H      -2.618697522103199     -1.568644060132342     -1.709657960633212
C       1.315733884249013     -0.456327494676353     -0.016559971569730
C       0.441522872293005     -0.939337759608944     -0.984421692928288
C       0.909953661120545      0.496640644254011      0.921120387722645
C      -1.840800588799305     -0.917305219975473     -2.128483532606052
C      -0.875970058543580     -0.473438838904014     -1.057996739797673
C      -1.280491468710978      0.476373345712531     -0.119313093549271
C      -0.404704788854941      0.964611243585344      0.845698678943632
C       1.240569708933544      1.590290010619452      3.207303391979812
N       1.912073998066598      1.121484305311709      4.451158347077698
C      -1.151658976127108     -1.613266002265741     -3.291548312215633
N      -1.947134874789834     -1.470923736697103     -4.537066520881814
H      -0.178093822603929     -1.167956075793645     -3.507846267533638
