35

H      -1.174290827420765     -1.214357726161263     -2.904570052278446
H      -1.093779318975289     -1.321475663302989     -5.311563079053926
H       0.396422635608634     -0.910068584723236     -4.624147237816453
H      -0.532283811019449      0.248145254367393     -5.375475156506418
H      -0.936961914579364      1.810813359695382     -3.322260450546124
H      -0.811648029878759      2.012832438358821     -1.021654913005471
H       1.544180389906671     -0.375615596985183      1.964166363304587
H       0.503835377719893      0.862496085569638     -3.053544045320312
H      -2.303681758024269     -0.109384753971628     -3.711466186841599
H      -1.344657556972217      0.017082679582411      1.009331771434331
H       0.589218694109372     -2.031681912319755      4.290144848559075
H       2.303681758024268      0.580298915520012      0.164407269070475
H       1.448262133830731      2.031681912319756     -0.384868261022227
H      -1.811203898431080      0.572684105155004     -1.106980770109827
H       1.694581893603138     -0.787925501703344      4.410082621598834
H       0.326060177036601     -0.785110042016638      5.375475156506416
H      -0.239747394821498      1.356284433269172      1.310484958190266
H       2.029621966566332      0.827356725060078     -1.557573825644768
H       0.834617456659524     -1.300784320553843     -1.904482547690053
H      -0.508327987400774     -1.800329845205180     -0.860068288779562
H      -1.110292390297221     -0.406708428445534      3.508617009398559
H       1.138542249430939     -1.735944671223602     -0.231262106162699
H       0.145881526302496      0.840513186943759      3.639347906277781
H       0.299598676545608     -1.619538463446440      1.818054392471630
C      -0.037829836721974     -0.211632897827123      3.400474090937827
C      -0.572438997502003      0.896702064717238     -2.843094124954034
C      -0.806592529261907      0.961022803138758     -1.335444038075966
C       0.461557003906952     -0.550694017756754      2.012598188897412
C      -0.282694678879896      0.303301944793684      0.989685133475334
C       0.427395653073084     -1.231624677052779     -0.891533564305307
C      -1.248240433212159     -0.300072887730409     -3.494748804961140
C       0.235348645229557      0.226727098954519     -0.460888589749961
C       1.581454687840230      0.959998529010332     -0.566874040001906
N       0.676451313809144     -1.010111658406712      4.436945933356812
N      -0.574745389126084     -0.596390161163601     -4.791131969844133
