38

N      -0.388105477773719     -0.713961160890638     -4.283808481477724
H      -0.416924741199473     -1.742388665127631     -4.132350925661260
N       0.313387150067641      1.028562629057188      4.263298665103614
H      -1.358182655794039     -0.363114575348757     -4.275104587135843
H       0.016870935676355     -0.550199122357393     -5.215312867806907
H       1.395400343004908     -0.592951636386704     -3.210368006214131
H      -1.419544182452206      0.235752793436581      3.386887349410964
H       0.074360375083085      2.031750407566782      4.130993593137157
H      -0.399898526182376     -2.264533721304740      0.061144762144780
H      -0.017088577440241     -0.854575149527868      3.430949633833325
H      -2.374109065122432     -0.526691106890867     -0.273209248938670
H      -2.462669435422909     -0.002143771113456      1.400410436262700
H      -2.088151664551838      1.166390104790205      0.133317964240565
H      -0.976167323034776     -1.982066281876997      1.701585495309839
H      -0.232783162554741      1.709659993498896      1.752587470922048
H       1.192710431531685      0.679025481028429      1.846806538721351
H      -0.429218322212975      2.264533721304740     -0.715073353631231
H       1.343519197791039      0.938827397807057      4.197599871133962
H       1.793957137738177     -1.445677807733070     -0.761874883351858
H      -1.283760040236309      0.267876687301269     -1.987514746203850
H      -0.564235094709320     -1.325012814918471     -1.778231266625836
H       0.744827568062648     -1.872780258946682      1.345547350677482
H       0.036638587957908      0.755832376800715      5.215312867806906
H       2.462669435422910      0.080143201563390     -1.347458239662011
H       2.304738222628835     -0.193853788395827      0.379256204059413
H       1.153255965484496      2.176076065241609      0.061991125554993
H       1.022877115179096      2.052567543632732     -1.682476912361447
C      -0.339160051160301      0.169619404189744      3.225601835968451
C      -1.915836025303735      0.139183877544901      0.462752893276518
C      -0.327680219740570     -0.258236788028150     -1.889617541214865
C      -0.250620768848822     -1.648905085515291      0.953777385611604
H       0.572127804450123      0.959793364074225     -3.477003141945643
C      -0.421745594203923     -0.155440035927631      0.652513398100318
C       0.426210213956981     -0.087624156581548     -3.198997154066854
C       0.541294413643676      1.768670959596024     -0.743057719950189
C       1.816652078863447     -0.365190783071118     -0.585462153743535
C       0.410280440560607      0.247646431758902     -0.635321447881910
C       0.095275944403594      0.667489905934795      1.854984126411223
