35

C       0.469579749135695      0.631120862749288      2.446357279117626
H      -1.054392496355886      0.145975946136735     -3.833112832235332
C       0.511153781902809     -1.623860808035841      0.586595420615575
H      -0.822230020686422     -2.773734441148812     -4.293561027461138
N       1.107451170440537      1.826127204858663      4.506257514599191
H      -0.397182694471089     -2.033261479045941      1.039472658693271
H      -1.735158839309185     -0.595507984060660     -0.715314586965583
H      -0.330951631815978      1.719027952558815      0.753575026791255
H       0.221853048319165     -0.276690128533688      3.010410400536763
H      -2.313222608271052     -0.934579108681520     -3.216172362232228
H      -0.820797810643421      1.868288074535063      3.673480155563514
H      -1.858010472910172     -1.822510859674888     -5.208339114834995
H      -0.897244174789898      0.744730556168727     -1.495002888660964
H      -1.363087603452712      0.420364891924358      1.334943533494421
H      -0.514599568753243     -2.248504228502518     -2.005265031804922
C      -0.378374807429440     -1.192188960201224     -2.277472151445052
C      -1.253726809877677     -0.864105396767997     -3.463279623803670
C      -0.760635078842713     -0.276401735987745     -1.113398264355926
C      -0.315403768962559      0.687557992960548      1.137339619846493
H       0.418670743082053      2.773734441148813      2.773162322286797
H      -0.236101997561908     -1.466450024205400     -5.177584188849714
H       2.313222608271051      0.496566037633524      0.285410887296250
C       0.211997458502802      1.844855589864153      3.313305569301111
H       1.350339494085848      1.374733820116266     -0.920247176806622
N      -1.026025541052698     -1.798646825990736     -4.603224035053135
H       1.993185819734908     -0.240512244598204     -1.280788123928442
H       0.833588340154092     -2.305591155867466     -0.202741375534863
H       1.285573786001192     -1.619866020048401      1.358305202905393
H       1.547240996860616      0.577483538466435      2.244558300070727
H       1.179288724773922      2.770365328163701      4.925966837936716
H       0.747261459505166      1.160940119593754      5.208339114834995
H       2.071779991481478      1.530221536317955      4.245197720183448
H       0.675004068309471     -1.073927753364944     -2.560967435618752
C       1.556860578131372      0.385074105505848     -0.498614205558923
C       0.257223377119546     -0.222808911461065      0.035256547446744
