36

H      -2.160461101531721      1.291263915635510     -4.148873272435162
H      -3.325963479840192     -1.423718696503654     -3.837999518655390
H      -2.396987989783479      0.148828508517779     -5.333257260044082
H       3.534765880808856      0.203069394763336      2.130025956796471
H       0.830523394099791     -0.512651237519641     -1.915619531363190
H       2.308339006574003      0.608391166632837     -0.286837975739289
H       1.094210457000182      1.802572896323578      3.050739965307290
H       2.159889690968277      2.252459042786902      1.743605627623660
H      -4.172396758918638      0.133083523857231     -3.731833948722051
H      -3.805158054149540     -0.473054151711971     -1.455034585314894
H      -2.604021628805250      0.755887012396233     -1.814131014053835
H      -1.168741746515122     -1.525819347935988     -2.488057949649717
H       1.853020775452865     -1.401568152623947      2.913891485528564
H       1.391841465245305     -0.359581208049350      4.258203701372970
H       2.902749242667578     -2.252459042786902      4.725464153847511
H      -2.204292217777534     -2.182205090413045     -1.240670283366670
H       4.172396758918638     -1.368616513216839      4.015797341025786
H      -2.306263255748305     -0.651441596404642      1.005761164038995
H       3.398898984727432     -0.755466797983109      5.333257260044082
H       3.362476923481606      1.176975604696729      3.602190179194576
H      -0.831688242880202      0.482733206213273      2.630596927259157
H      -1.235114676322707     -0.115998663233767     -4.189494058884858
C      -0.464147784049662      0.265129496765645      1.630178779266208
C      -0.846581101598930     -0.648818490842815     -0.579120166078735
C      -1.294213378711753     -0.369997285738870      0.713888736243831
C       0.837133983208348      0.640340673932566      1.283401794440383
C       1.709912920969098      1.390126083082833      2.247229568544691
C       2.815753408848745      0.550487318118202      2.886209605275498
C       2.226591130683515     -0.644102414371919      3.609547055046697
C      -1.764004524240972     -1.247852484941173     -1.608499748465063
C      -2.893052537057847     -0.281323292643757     -2.032141303928586
C       0.465841364847161     -0.306979962430814     -0.913367512735993
C       1.296952199623461      0.323273036817279      0.005645365115258
C      -3.240273351919349     -0.383858928490461     -3.504679232994015
N      -2.186068318293986      0.269479362201279     -4.335029051786884
N       3.244552332420484     -1.303408982386350      4.475865559873784
