32

H      -2.196513364726041      0.292609276828522      0.853007914154148
H      -0.513005209526021      0.189590753205339      3.426730118414735
H      -1.237632774707361      1.663970262436910      2.774304243650850
C      -1.320191916925687     -0.041680785719381      1.437169106146190
H      -3.526220292353448      0.708776777846607      3.039357179834532
C       0.039056016790099     -0.311895807536624     -0.692135933173109
C       2.663068874074761     -0.245157191507648     -3.536147870326193
H      -1.900080530399078      0.292383107399571      5.504036982746971
H      -2.515719015182295      1.779305719217948      4.958483926986222
N       2.652467262250045     -0.742448998178312     -4.939693194584528
C      -2.662758869344480      0.244416803449205      3.536046446629804
C      -1.360545740578768      0.569083941533378      2.833554081709831
C       1.319587467816758      0.042535095943531     -1.438198376178448
C      -0.040111945787335      0.313536990471944      0.690777350287842
N      -2.652338638048229      0.742440244455572      4.939306991063223
H      -0.034991727159889     -1.410192579189926     -0.602907645272854
H       3.576694734311288     -0.545779349974079     -5.379177822581237
H       2.515801596285160     -1.779305719217948     -4.959348860116965
H       3.526809455928516     -0.709448290750552     -3.039856829988729
H       1.239189943044879     -1.665239668291158     -2.772821433729092
H       2.195596649655395     -0.290598876683012     -0.852834773203611
H      -1.408895568890763     -1.139627701941375      1.520221427863149
H       0.829535318893112      0.008765798670167      1.294387922585770
H      -2.833876399467518     -0.840005009179748      3.582513018721983
H       2.833811117155010      0.839367816972006     -3.582213919599369
H       1.899840138397332     -0.292397391559923     -5.504036982746969
H      -3.576694734311288      0.546223285758431      5.378651746384666
C       1.360994710300342     -0.570345032850756     -2.833622984011946
H       0.513235892516665     -0.192522637645920     -3.427543088241809
H       1.408003692643397      1.140402657056434     -1.522947600889058
H      -0.830227515982648     -0.006680856140441     -1.296069655010704
H       0.033329584210738      1.411883894952618      0.601551828894220
