23

H      -0.552076490901178     -1.547418956442829      2.377559821020390
C       0.678150741892251     -1.339798130712625      0.103388615989998
H      -1.153127066356151      1.224754528892340      1.474403334128643
H      -1.931913615100654     -0.269709789285986      0.908293000279967
C       0.078856509610276      0.057761155715192      0.118292166934340
C       1.160897767726350      1.115219415217910      0.320215762056608
H      -0.261651522859713     -0.083459296009622     -3.201097763250321
H      -1.194745089798515      1.265765621657565     -1.182291066609015
N       0.217534878251074      0.350624143362963     -2.392897093252581
H      -1.412320838433124     -0.489967418934967     -1.372610951977480
C      -0.983454644620488      0.175309115884501      1.214855154584948
C      -0.677850041845518      0.301433165945080     -1.197033287617290
N      -0.606697410021174     -0.512954354798063      2.484963931055137
H      -1.318838094221417     -0.316359033519178      3.201097763250321
H       0.285387404613145     -0.169381016164724      2.889644056504506
H       1.931913615100655      1.017458301809526     -0.449415155558891
H       0.729179069092913      2.117588041847555      0.283619707679082
H       1.660706614771520      0.979797842404692      1.286503617458476
H       1.323326716431124     -1.501548577164388      0.971854512916721
H       1.310090365765808     -1.471600617730064     -0.773478752213801
H      -0.085970568905532     -2.117588041847555      0.079809170082399
H       0.428860675998015      1.341417642992574     -2.632255025476990
H       1.126846818174407     -0.134170376602365     -2.265899952700981
