26

H      -0.679190338839008     -1.928739134864661     -1.208594234735814
H      -0.978386139203600      0.284675474291040     -3.333931411534352
H       1.940429145600905      0.678938659780711      1.215907112353750
H      -0.279635300388481      0.976705788441365      3.335008571082466
H       1.456374185344959      2.657347774190246      3.538559409615403
H       1.535306431850823      1.533485584496329      4.774094439652335
H      -1.930816425636392     -0.673745008109297     -1.208431865573774
H       2.661265591544435      1.450539306714964      3.540574201165248
C       0.895985196035565      0.890844381114748      1.502947320514472
H       0.158792579263577     -1.090718043033860      1.066361565485475
C       0.062350073557148      0.062218972897201     -0.761100432075819
C       0.742063575235482      0.738541579988787      3.009919861677798
H      -2.661265591544435     -1.450914861792518     -3.546793236798488
C      -0.052537477109020     -0.053309816777316      0.757617029120852
H       0.978633115894431     -0.283066635548712      3.336453573289847
H      -1.455613568794642     -2.657347774190247     -3.550132089672765
H      -1.536124082145974     -1.527896317593290     -4.774094439652334
H       0.281500971350789     -0.976765542778548     -3.334340158446452
N       1.659697977689914      1.655892741766017      3.754314637384991
C      -0.888236049778737     -0.885543198702369     -1.501106943094410
C      -0.739917953688671     -0.737166336666117     -3.007939370180443
H       1.098515545651821     -0.153270764056712     -1.072764060870995
H      -0.150774368543259      1.099125933786871     -1.072054998676757
N      -1.658283206289037     -1.653789900960206     -3.754802922267441
H      -1.088874367289200      0.162053887302553      1.067091169205935
H       0.689206091082128      1.936129610342018      1.215179321218630
