32

H      -0.290280710487195     -1.245489358414652      2.043285428451400
H      -0.097650702341063      0.751944023700608      3.457664805989662
H      -1.349431987790965     -1.990434060253042     -1.407485599562257
H      -1.276424381754135     -1.985576004093199      0.340670652186295
H      -2.190735281135702     -0.716264290845016     -0.503416420803292
H       1.534977649572232      0.822127611256566      3.117239845791138
H      -1.090478865658969      0.953216574694961     -1.842648893559452
H       0.923065715038812     -0.485880674350597      3.901025351632205
H      -0.528378368236229      0.217823582440097     -3.901025351632205
H      -0.415080342862540     -1.262868772475073     -3.131357934528194
H       1.118480943486912     -2.256782551282764     -0.033936165474920
H       2.147944824057250     -0.927293118331705     -0.609012249650172
H       0.671090020097205      1.176727144834727     -1.887474920877901
H       0.959867795674979     -0.373875248846218     -3.430754558400587
H       1.437033688883945     -1.081908850380079      1.691392354664247
H       1.229219597995794     -1.915471479507300     -1.740899683541945
H      -1.552783698195414      1.607033993797872      0.145772974886929
H      -1.885440258334774      0.470833138599751      1.450497954018605
H      -0.940545737104150      1.941063645651603      1.750116194680052
H       0.935175907846142      2.256782551282764     -0.143970706965883
H       1.548379583727684      1.921586822051610      1.437963654147344
H       2.190735281135701      1.011103542469466      0.066011939467209
C      -1.127444337032791      1.136573699174203      1.030084200907845
C      -1.286022963564911     -1.330811231382962     -0.535670838732583
C      -0.127839736865718      0.435489455645693     -1.841018891304253
C      -0.004509126412358     -0.491789648785473     -0.609810018601654
C       0.512336162380519     -0.530457416572639      1.855575615993933
C       0.168553985872480      0.404037704704377      0.687575742869408
C       1.279996319846909      1.438985720018380      0.493156650379369
C       1.195534057389240     -1.440070614949540     -0.757563964439072
N      -0.038865813501223     -0.299970794510052     -3.151786528446819
N       0.719462158702152      0.193065266480408      3.146962416806820
