42

H      -1.277436528901528      1.223616110939135      1.177215882715151
H      -0.850538564420978     -1.404857481035778      0.728095195203545
H       0.826600483655261     -0.534088851190961     -6.860313773178255
H       0.586979608807918     -1.830826321288067     -5.841384833070611
H      -0.527584378151896     -0.580916367252513     -5.880016559074203
H      -0.988945958220726      1.242614185633488      5.772635765689060
H       0.272499190837507      0.132195194662851      5.780090691017570
H      -1.120759242413456     -1.650471374743364      5.087198527460419
H      -0.999469965550663      0.491678648740651     -1.032805059470883
H      -0.078510971718970      1.985952624372105     -1.142405766664911
H      -0.346615710114390      0.130373203754890     -3.451241432556163
C       1.136697386309015      0.189460316214074     -0.988587745188202
H      -1.897967831873403      0.747945337379214      3.342668165956484
C      -0.220629619551561      1.179894818553974      0.887054514413350
C       0.471791350966123      0.033100778714290      1.643993974755420
C       0.129125896388723     -0.023456899184665      3.131446897836977
C       0.968941784510070     -1.245527962169038     -0.461091865480199
C       0.227844335590575     -1.275665518966014      0.891397714629898
C       0.645069805711715     -0.339657230892691     -3.494010548312533
C       1.581902701662701      0.252700181218070     -2.447009881967732
C       1.261482737140670     -0.109791251420524     -4.860432799473418
H      -2.555836281650140     -0.617262697555773      5.261602556167400
H      -1.825512696743510     -0.948456247983816      2.879585272121945
C      -0.109590916201826      1.007792818156826     -0.646216688286053
N      -0.750865793878368      0.240515659227476      5.889339840672317
C      -1.344152193994125     -0.185617201002090      3.502674671800374
C      -1.511224882841784     -0.639639918982613      4.940886262584698
H      -0.977009105872312     -0.014895812197319      6.860313773178255
H       0.520413581704160      0.889461639505409      3.606171925290120
H       0.223756953355001      2.135367201409870      1.196040205815319
H       1.557632541338419      0.211917889359974      1.614446176846533
H       0.550368378945672     -2.135367201409871      1.491699745605338
H       0.424569686784243     -1.856585870398784     -1.191268940772966
H       1.962381232723359     -1.698462332775176     -0.358395900449826
H       0.697613890743049     -0.856289711144226      3.570096506011314
H       1.287558005246850      0.953659151689160     -5.115453183276349
H       0.504597720270868     -1.416246315122973     -3.333919606897320
H       2.555836281650139     -0.248309245557465     -2.536402118711514
N       0.484125248474292     -0.800582967894560     -5.928059836581664
H       2.281398238794926     -0.503561676272858     -4.909508147938641
H       1.964949142555982      0.645590165967442     -0.430688240039519
H       1.755496462213966      1.305061789573098     -2.709951460876439
