18

H      -1.654847515456142     -1.811569218555688      0.396511778994749
C      -0.533436831540465     -0.716388717618564     -1.079915275156802
H      -0.941144581270060     -1.260154161810640     -1.926332029882131
H       1.655426057997682      1.811569218555688     -0.396363546392429
H       1.836107163048065      0.539072024878319     -2.739258182634792
C      -0.389322017295049     -0.300691044584330      1.270004620858918
C       0.533927876360231      0.716659409211845      1.079937789044108
H      -0.592391542797785     -1.656719020810694      2.812519260265694
H      -0.327550513892184     -0.076069771321775      3.346377186544246
C       0.389634446042410      0.301079153453834     -1.269818585774110
H      -1.836107163048065     -0.536395972186755      2.739253025697477
H       0.941552476456472      1.260400556229229      1.926414367225168
C       0.932568271940384      1.022794180221094     -0.215313550558657
N      -0.802414898162597     -0.651760939369172      2.626141522599217
C      -0.932108617906521     -1.022627233445673      0.215372466245104
N       0.802055767974704      0.652681715176412     -2.625913894653425
H       0.590920867704421      1.657580353981356     -2.812348230026508
H       0.327695969013465      0.076712757099401     -3.346377186544246
