23

H       1.511692199203732     -1.261619722077815     -1.162513251053831
H       0.529976487190954      1.237941622543328      1.407093998577455
C      -0.118020150727289      1.096102297482565     -1.224281033883255
H      -2.125052116971329     -0.698563539421297     -0.493221711172846
C      -0.310912239641339      0.596785754758132      1.125199875400812
H       1.445801565124866     -1.429703303029065      0.573604885820846
H      -0.967837207061567     -1.507302846128207     -1.573087532777186
H      -1.036411296056049     -1.969366085939885      0.120174863680273
H      -1.505525463388519     -0.625325457601365      2.325077222156199
H       0.024793433287281     -1.268912975902661      2.105137460869772
N       0.488975641941657      0.802540113340442     -2.556710485779304
C       1.334029129194471     -0.704468702610749     -0.237336740327353
C      -0.053004601340111     -0.070926777340455     -0.233932681670817
C      -1.118132338335059     -1.116600835935514     -0.560511295504783
N      -0.498161648246517     -0.385560785937690      2.232583531419293
H       2.125052116971330      0.042232169443757     -0.124166215734216
H      -1.219477834599081      1.208551581120112      1.113482580433695
H       1.485351422287585      0.521806413905352     -2.486713456904133
H      -0.188924315823323      0.023318365127013      3.130955038793156
H      -0.020129252058457      0.073619285133914     -3.094881300860270
H       0.476664443240757      1.661679737476804     -3.130955038793155
H      -1.154586460991780      1.394528527026257     -1.412909308823021
H       0.418052955147272      1.969366085939884     -0.840722229342209
