17

H       0.200772436647171     -1.359877420767571      2.430980431677434
N       0.334371748550085     -0.365305848234846     -2.442767709335644
N       0.355435047323876     -0.331895997969701      2.444256089653760
H       0.107643292453997     -1.377516314921707      0.008424839808572
H      -0.044370888782427     -0.021167395746868     -3.338180881978155
H      -0.017146728027135      0.022560470573893      3.338180881978155
C      -0.298996806388987      0.301813612851749     -1.267805315857426
C       0.291085095641357     -0.294277156443724      0.000514003317812
C      -0.288907601944483      0.318249620794811      1.265678105032008
H      -1.368999739309619      0.159075734855286      1.351760327323679
H       0.177271500939540     -1.392739367453073     -2.416272493976221
H       1.378773095657785     -0.141691278363398     -0.004956262988871
H      -0.091224163485090      1.392739367453073      1.337320302055586
H      -0.100253813320343      1.374881628588186     -1.356028667786496
H      -1.380046126990636      0.143241322665949     -1.342454510755850
H       1.380046126990636     -0.153478088458563      2.441942383836500
H       1.359207898635916     -0.189509301513381     -2.449963578446627
