18

H      -2.472695340358029      0.014238190439553      0.213909497490987
C      -1.390749366701892      0.009086017021469      0.117385123057013
H      -0.979957173001269      2.128184630085576      2.392632018057872
N      -1.206759629473737      1.109941641842140      2.310485804835181
H      -0.880296700582845      0.658227180590385      3.182221747946312
H       0.979933364913151     -2.128184630085577     -2.394151548013047
N       1.207078045781759     -1.110073120894678     -2.310658284495300
H       2.241427917224804     -0.995474361916694     -2.288918417877304
H      -2.241026944998204      0.994671679523938      2.289736419704087
H      -1.419414752300590     -0.935160518836007     -1.816429245572844
H       0.882204131237482     -0.656632797339247     -3.182221747946312
C      -0.582121538713606      0.530281042008456      1.115745348241025
H       1.419403195208705      0.934536926178147      1.816333674159369
C       0.800289681367855      0.532136987140509      1.018452748162495
C       1.390800638921273     -0.009902262126936     -0.117418560638693
H       2.472695340358029     -0.014864945628290     -0.213989205071475
C       0.582148847797357     -0.531135231940498     -1.115775554460218
C      -0.800260825119680     -0.532969274239394     -1.018490706964873
