38

H      -1.087084793285271      1.647650688969121     -1.436341594697579
H      -2.506899802436325      1.106745767887360     -0.549862814838878
H      -2.216907701406569      2.648826863344849     -5.607597077634031
H      -2.585796270817845      2.530691880458336     -3.088436696850240
H      -4.372295957453642      2.139409954732005     -4.927330331842721
H      -0.942151791220438      0.490157670012246      1.320297199318404
H      -1.580510676008070      1.176058391032352     -5.218366173875552
H       4.372295957453641     -1.676399452067932      5.221244117085449
H       3.015633156916904     -2.648826863344849      5.411891721804514
H       3.346700163478848     -1.405568162381329      6.486565269932800
H       2.136402650195674      0.450443312299680      2.141651097086315
H       1.705700777711844     -0.424414574968066      5.274722931551898
H       2.987951395996687     -1.761833748821333      2.825004384982261
H       0.430349386774386      1.004433336321626      0.341638065475346
H      -1.558000575015871     -1.197992996615027     -0.412149919890386
H      -3.081037648021340     -0.431338237197592     -2.473931538165100
H      -1.626325173283226      0.102240681413311     -3.298184941322949
C      -3.603773589638620      1.426673708283594     -4.616391964579521
C      -1.742260465703783      0.779971289363501     -1.270918639869985
H      -3.982257491916544      0.418751831820312     -4.809525946122022
H       1.445573533797598     -2.167172228840740      3.574594962474581
H       1.384362450126084     -1.343566331878726      0.588130173854648
C      -3.183735380271357      1.611901774715110     -3.170144768884465
H      -0.182114964790739     -0.698956294903991     -1.393984933412257
H       0.036662849708050     -1.727194605225702      1.655095739396375
C       2.572003818866179     -0.714270108263298      4.671494501865682
N      -2.444406668006312      1.639240219774812     -5.541090036868679
C      -2.406182204073565      0.427623537692598     -2.595253766985226
C      -0.912925491984351     -0.341577484491869     -0.654711865127124
C       0.673619468478382     -0.905705401862507      1.299118092632241
C      -0.191786859748037      0.134066994379699      0.600370182467302
C       1.416538667060487     -0.303280291332530      2.489374773813008
C       2.129400840523296     -1.334570354420684      3.358607988348314
N       3.371744451875779     -1.678272362255855      5.493211435631123
H       0.689580425065757      0.233209100609673      3.113957340220280
H      -2.664323245994061      1.285610431526654     -6.486565269932800
H       3.193748900455812      0.173765620129843      4.525386796145028
H      -4.088995334703629      1.782662635065935     -2.575028724236169
