82

H       7.787334519429277      2.437576689205098      6.183724587996913
H       5.309868964369335      3.886131431751218      8.839031809505187
H       1.424483563172918      4.475132615033193      2.692816850501924
H       8.001563340351041      1.437703916237691      9.862007590233187
H       0.081169468578789      4.288190610293574      1.695663889027391
H       1.380487004637170      2.207943221359868      8.851627094780925
H       7.965147890926776      1.345126141045597      8.094459609188467
H       5.646620284313719      2.468880712784721      9.847989369500072
H       5.641514211069218      2.315532481320415      8.088150481789876
H       0.186489343822447      5.613944714828636      2.730192184508355
H       7.370070813251658      5.210521755362231      9.911413327467743
H       6.377675717144327      3.760614127129462     11.633731493740694
H       0.957729516833089      4.279015456899026      7.570281503809956
H       6.543512256504659      3.871408005486342      3.592552433570353
H       1.210374362253672      4.302784387378894      5.155458555866375
H       7.715107442497126      5.356302644426328      5.224317065549108
H       0.990972901074105      4.374182409609128      9.950958163857816
H       6.326384534361233      3.430539541051541      6.137615748476946
H       7.318189342942599      5.090232880429633      7.666973066364336
H       1.638092637825269      4.965217809068988     14.759264551683271
H       0.408728107239457      6.120928947826997     14.731987662288327
H       0.344987529849611      4.842129976637789     15.822188921090778
H       8.050815198868706      3.204520135625587     14.126075124928049
H       6.709872825843443      4.376947612838460     14.126064620282012
H       1.316467678686332      4.624255386763765     12.323005692506543
H       7.916686847637613      2.735457514104182      3.613417375578129
H       7.840951751602629      5.705539368012515     12.339206848554934
H       7.798508121918369      2.710095408249213     11.649405465699989
C       7.626698450532770      3.786144678474194      3.759988174409056
C       0.110093957302420      4.313109698494246      5.070673853260657
C       0.297354294173996      2.010970714139867      8.883540246965936
C       7.415502555464098      3.305998942625145      8.884646826149119
C       7.816511954013382      4.212742325635449     10.066422350009558
C       7.421204486815698      3.474875096173107      6.259561072647196
C       0.221040685716329      4.667191022024446     12.450542467392321
C       7.783196393046652      4.251940462454820     13.925611951174668
C       5.919571987939129      2.980270880915549      8.916319657398100
C       7.468937096559602      3.748149600441746     11.477981007325896
C       7.784846906547609      4.090854440138259      7.608473672463148
N       0.388092557535063      4.593984311158247      2.638990598446244
N       0.605860637053390      5.101891499257790     14.853299048077549
H       2.751365495020396      8.125718316429458      3.573136654840908
H       4.345090996858096      0.454596196103837      1.723166714547538
H       4.068348023235934      5.519557277468066      9.900647984739461
H       3.869284406497755      6.580219435431429      6.216475357540443
H       5.805205122369443      1.006026361395930     14.644879039212956
H       4.932773978359510      0.228396064423563      7.585915550772078
H       3.368070031588700      1.033636672547340      7.624111888097942
H       2.410470536784640      7.576091524621688      6.155031004138632
H       5.251510484933707      0.299529838493441      5.223788519124242
H       3.837564137495249      1.362457147509218      5.208338974645657
H       4.559951686317466      0.978209563869504     15.775964171879510
H       4.110027509443589      6.975098686430368      3.625458791659946
H       4.365205258338010      1.714328872103256      2.828373934461937
H       5.616641065840232      0.548146906571177      2.816074399151648
H       4.549668328235795      2.168370934253292     14.599611944167661
H       5.378863042106240      0.561379595830360     12.269231973648521
H       4.276159702619958      7.389140883995937     14.262640974312342
H       2.933212264781042      0.385373960115624     14.132082125655193
H       3.975987546879270      1.640262821118721     12.240127732376633
H       3.942237531603668      6.795186193435620     11.737471626633360
H       2.503324194320584      7.821089656029068     11.756654962069753
H       3.441777496831074      1.125088723513787      9.875012224230167
H       4.989161093838457      0.291238103050435      9.928330935179121
H       1.369055135903473      7.984606146388598      8.958602523781956
H       1.683750459828630      6.435296562964719      8.155339027104420
H       1.719783001725611      6.538761128799116      9.920693093595565
H       4.004052108069150      5.447466833228464      8.131925183634188
H       5.352903913957845      6.284507505932825      8.936171355263166
C       3.891299021054218      8.292979792638391     10.142126618738439
C       3.987338169967131      8.420297960339502     14.015706883154154
C       3.835776271632010      8.203034644453432      7.682298956834201
C       3.501339020529390      7.615373223660555      6.308610476209751
C       4.287734312490714      0.598769373223327     12.433844625963305
C       3.589234525430409      7.825541126527269     11.567657061229667
C       4.155682545412428      0.311975059488887      5.088653798629378
C       1.977346631935849      7.075421714198795      8.998392569196266
C       3.473275797529453      7.398840511039945      8.952515234972884
C       4.269740238815885      6.090936719219980      8.983004148355016
C       3.820474254502472      8.020357524198170      3.805297311996584
N       4.587287814908805      0.700769843504637      2.698625944087533
N       4.779231399675309      1.163945560324038     14.781708262901835
