32

H       3.574914659301776     -0.530345563193245     27.208712660472081
H       3.305317668910871      5.879182554224816     27.933511912643180
H       4.388177906220067      0.226769072812324      0.550405259974925
H       3.971174137066130      0.841321662709481     29.162174513451077
H       2.260660314364506     -0.581217019869188     28.240016420259373
H       5.144913300895444     -0.491676209433334     28.975646796479083
C       4.104868322617975     -0.239741602384931     29.190579610589321
N       3.264665055795879      6.911471409420529     27.913492958380310
H       5.945800626527864      2.768428428979029     22.102919024756588
H       7.008694872337466      4.847637914168869     22.636135242845192
H       0.902114683758736      3.979091659794210     23.179224808601202
H       7.138877467877338      3.700397581493923     24.009901581919674
H      -0.295559147117677      1.898254739661239     22.622751509723759
H      -0.355714808662023      3.002908147029578     21.375688436371028
C      -0.183701530587106      3.921553937816679     23.231776137771547
N       6.978255732331200      2.820289167375835     22.102045309001255
H       6.733568781633529      4.539941435400246     29.043291675550076
H       0.968253749882454      3.458338733239491     28.116886584235793
H      -0.406235638506705      3.600621369086916     27.156532467091782
H       0.021877436986301      2.122147616619654     27.842778182711236
H       5.779547975221062      3.055111016984156     28.757723714044939
H       0.208017282686730      3.877126245247865      0.449404218012630
C       6.779084004555959      3.457066578964232     28.930468990782227
N      -0.012616660576678      3.144340607663068     27.991854420825888
H       3.631133584810183      5.987866477007877     23.043597644577325
H       3.638913464632716     -0.379380168688167     24.389052257375418
H       3.149688038994095     -0.232393671505632     21.469141830751106
H       3.144616512606474      1.071278904652461     22.505714389564847
H       4.878951781412652     -0.508697678048559     23.093953453250471
H       1.962495523231259     -0.101511371222887     22.630184631041438
C       3.847617756419442      7.051017294984184     23.150536935632957
N       2.968047753532054      0.053101715116282     22.441822544153926
