60

H       7.154556467159444      5.760257473668803      8.241122779352663
H       1.826871018302127      2.727877101180124      6.449827821044568
H       0.406164497208322      5.436956341437323     11.617045835203010
H       0.179395822308699      6.256992705717341     10.200076141673497
H       1.398306584033680      5.098840343371410     10.337166022793824
H       8.411476423179714      3.387985428340039     10.711898608752406
H       7.183273359274828      4.627140199715724     10.383918316872082
H       7.522304514608651      3.055725518169195      8.542570842464317
H       7.013810690148838      4.588442611447046      6.960426219393261
H       0.678221314857353      5.776226794424175      4.345571620241109
H       0.775023793586734      6.239724276871258      7.752838038276099
H       8.472371060972170      6.490085502819253      6.269552565174940
H       7.454218273954822      4.208757608140008      4.651222895544629
H       2.072238016888204      5.061702933607278      6.333129734541573
H       1.691246207267903      4.003226249665224      8.679282093661827
H       1.026957117652896      2.376507546862515      8.762726469527172
H       1.654526513636148      4.299554932130866      4.197895031977424
H       0.074025087227908      2.768055453360945      6.437072978287349
H       8.474152936101691      2.952378441895935      4.248690193603452
H       8.151499317578333      4.178630090143383      3.162729417866461
C       0.962122358074926      3.305423698262148      6.796891762537529
C       0.805979259282430      4.754128353230485      4.717077788542701
C       8.225089821806517      3.896923263091049      8.623427471004234
C       1.030064482157986      4.727896804882004      6.223886992745992
C       8.172156223652049      4.258548206210270     10.096355142167173
C       7.728929697401185      5.016730913195409      7.675561798123686
C       0.876968101065795      3.363748068397612      8.313691728531035
C       0.141190661034148      5.706882080472257      7.031290334538497
N       0.423117556911789      5.326173602350806     10.594612595825064
N       8.330582055629295      3.977309299869611      4.158036504020836
H       6.601006472904426      8.159462595386605      6.842218393931762
H       6.217437190126702      0.421420422053698      4.269721559168750
H       3.134469130772998      0.373322099089012      5.646818148216621
H       6.006824666877710      6.908056026405482      4.759217063728837
H       4.588346443423638      0.785015176410246      4.377398915177880
H       5.662367430041501      7.516512165879714      8.161487083428517
H       5.956510050530913      1.289010093992371      8.200258167486725
H       5.180087082264230      8.719324609474807      3.191953399167322
H       4.313489015188505      6.907676655343148      4.242809724108906
H       4.467471300615478      6.453794899182424      6.585919170873328
H       2.440907998121615      7.490795868039962      5.968396864333870
H       2.980270422473724      7.611850965064539      8.449469382991914
H       1.828926754307765      8.831286572865588      7.931310120936639
H       3.352991870322681      1.892566408178823      7.919846883708746
H       4.314662226272239      1.897458630610691     10.073468792198856
H       2.854645247542089      0.887444418454121     10.152784440048443
H       4.350573827570940      7.617195197811683     10.159736670569728
H       5.675688501473152      8.646349931538506     10.211790962741745
H       4.603921660033703      8.589685504567589     11.474700123704563
H       5.194355823799913      1.515361678584955      6.650820105989966
C       5.195308322356466      0.864846697782676      7.533392162248434
C       5.591776138340870      8.153574662298015      7.271802183832015
C       5.051685391927857      7.432304625589590      4.852903010264629
C       4.581759997005720      7.507814779274752      6.294493032028750
C       2.873148160726058      8.518398807740324      7.832916691757741
C       3.197555010901091      8.159884497897968      6.391308944159118
C       3.801097987984682      0.929023510193287      8.197231133039416
C       3.856945948912378      0.970499978230742      9.717512519767320
N       5.257630582506604      8.775467845805149      4.216812945540845
N       4.669469220104244      8.562193545745158     10.448063636689096
