32

H       2.027155127643406      4.920145151705337     15.611305644140975
H       2.250957301172098      6.399606763241066     16.604511190003993
H       8.993302195605610      6.233549491893893     15.958712507149308
H       8.374836946591055      4.371313162739055     17.393087327076064
H       1.536630131783639      4.510298093157365     17.958340105117280
H       8.577807008250860      5.750596436433687     18.308960666804630
C       1.524976182459063      5.683568835908035     16.212518951831701
N       9.074743760128287      5.057546349976809     17.714831092473379
H       1.277646454803761      6.641928955190254     22.754890159441132
H       9.321256888993226      5.320171789464452     24.072976916476740
H       2.461715045637110      5.455894863193281     22.760432541590426
H       7.871317351318724      5.121565571120517     22.145646957125688
H       9.319248424737276      5.305685737899503     21.097791568812749
H       9.138367391292384      3.860185110870455     22.149797912748927
C       8.944566798707234      4.932326109483347     22.054157035799946
N       1.430523551242497      5.610720823018728     22.800850441831294
H       4.642948872343179      8.701496263409107     24.194579760793523
H       3.437523273399384      8.783999617554141     23.028971805115805
H       4.619869434583975      7.588340839078835     22.948262462473952
H       6.360946511918700      9.257584925332965     22.568508930924985
H       5.077707703036911      9.354895791096510     21.319382564857055
H       5.050724602869665      2.306807507186516     22.327602801936148
C       5.256371612979174      1.271959904421363     22.035794494662390
N       4.451056317570345      8.591053306151666     23.185210189267686
H       5.100932618112484      7.987224915413190     16.959816787727938
H       4.839509505915790      0.833515636000071     15.200037042172520
H       3.774908555284412      1.033240915356567     16.625941053832790
H       6.734112671267562      1.531800299190660     16.585378340097893
H       5.743952388699956      1.722359106413227     17.901706770817103
H       5.551297510941357      2.717898679213548     16.589519234331458
C       4.835494443769964      8.995946593460529     16.630051395664459
N       5.752085260116062      1.734433719634783     16.869971517281982
