34

H       4.585358641552459      6.935112314978234      7.290062030332307
H       5.831307049889396      8.129112510573998      9.720631760182034
H       4.615677746754065      6.963692561694621      9.721248494608965
H       4.396323495038837      0.929802262628258      8.602880490585900
H       3.102740460222378      8.492386058336130      8.601152733846099
H       4.430138708823836      0.902635030382007      5.912536552885421
H       3.143270236652179      8.458561434786148      5.899886374994000
H       4.711874763503524      6.917306649786550      4.864391130473224
H       5.870266605725368      8.155547230264411      7.296374180111989
H       4.445359283658289      8.371778445885329     10.612494887052454
H       4.533683749301633      8.291572417262339      3.938241840666541
H       5.908085059378709      8.100621883960864      4.867790176847461
C       4.222598164373117      8.613634809044056      6.000777128675296
C       4.185624527405494      8.640437538069705      8.533381747359934
C       4.780844961297201      8.016066212190763      7.281748195362987
N       4.881633770162512      7.940460198517920      4.843495759794289
N       4.802534635213454      7.986306322640300      9.725338372330736
H       0.170492018059304      3.476834888206312      5.955905662949248
H       1.600980482904438      5.030579213393970      7.321931275240233
H       7.415345760207704      4.695167753953465      5.888780699164235
H       0.306230400703459      6.240465825050891      7.305724051205724
H       0.343508931380660      6.231692403694337      9.737557292977725
H       0.178996160822778      4.830036974428326     10.640117307712464
H       0.139063969762107      3.472561933339646      8.643995296881377
H       1.564032792284697      5.071386270045432      9.746351829284027
H       7.376028795757697      4.683055150384121      8.592369559718406
H       0.266207124749750      4.853452046155122      3.965384840081615
H       1.639601012214182      5.057486959284511      4.893028798075693
H       0.439064440403861      6.236305797156755      4.880124893013516
C       8.459882024214696      4.542254625997587      8.524463620387634
C       0.510421292137520      5.161111738233418      7.306637607779387
C       8.495521844514442      4.547759662272827      5.991753516446624
N       0.612497171733505      5.213730715410917      4.867656669882044
N       0.534704719714280      5.209888740837476      9.749926110770742
