16

H       3.191696125479045      1.035187872872518     19.168993563292616
H       6.922261641198107      4.179133393930772      0.563073634167521
H       9.522350175915113     -0.513670157992860     21.018522018155966
H       3.180883375330032      2.098510573524711     20.469939269193592
H       9.442369824757664      1.771553912017503     20.323082644739657
H       3.391961545969242     -0.217961319013869     21.200997481954023
C      10.114319136832856      0.234494199153098     21.543874619990721
N       2.662626322827029      1.345330814887144     19.995480755858583
H       3.799134043711607      1.026962310165779      1.076154626408412
H       6.649002477883901     -1.283908747577823     21.698304676645094
H       6.362565444935528      3.611152173876143     20.015291942925295
H       6.435123182290497     -2.953350729119299     20.001028284540759
H       5.089618770356140     -3.068110881661344     20.997183272380521
H       7.897999521529280     -2.544677816237839     21.866108850436817
C       6.831372907958912     -2.331267857294038     21.940664475144491
N       6.118684852691232     -3.179918702560008     20.953174186219034
