76

H       3.485071734876382      1.012210767711542     11.289666922020178
H       6.099211605636951      5.918618975042157      5.775990436812424
H       8.278346743033437      3.781332992860710      5.641327484556292
H       8.342123200443163      5.266919426052953      6.564636117620004
H       6.589835777474877      2.816595999391083      7.103977494252059
H       6.466000493398725      4.305330343182899      8.048266869618363
H       7.709272799349367      1.294328501129738      8.971078769355744
H       1.397112916175599      2.753312823543581      6.988751297545759
H       7.167031883299021      2.614992549077941      9.999362266597039
H       5.820518247555481      4.308206024970202      5.090981235420599
H       1.862514647746022      3.021354538904996     10.042422769573506
H       1.141989706827707      4.096772487045754      8.085745539046394
H       7.886217502344262      6.237536790490135      4.207023135511578
H       6.486821912732591      5.862707294045356      3.419369126391277
H       8.122849480503882      1.352317580557922     12.022606262296522
H       2.398406693997013      1.681894788383927      9.061380892861839
H       2.638427986193011      2.314694315265112     12.107260418510808
H       9.261473533062587      0.735229457481833     14.311552287851447
H       3.311989664674729     -1.019139667093769     15.166627820142910
H       2.360208181656775     -0.645287082210673     12.860634572772486
H       3.017522765184488      0.478571741245446     15.883652380589053
H       4.592214132145128     -0.077127964062419     15.658910787120627
H       7.673093969684335      4.696861955679746      3.581335279141005
H       3.861759523920438      1.713733788186965     14.127921808562233
H       4.609717741487984      0.267354921512890     13.418561418301447
H       8.978930678740564      0.090412516924060     11.158880258889145
C       2.466778798316535      0.423246073837829     13.095888855529147
C       6.589205545762965      5.039654786128075      5.347259440308485
C       7.665079761746912      4.465940296957771      6.240757148178209
C       8.335383771509035      3.243050263384178      8.291200315380067
C       8.020854634418999      2.254220526866914      9.405311856212059
C       1.553910485132125      2.033054068605649      9.669422425081335
C       9.063848112097313      1.132911371726587     11.497043830543500
C       2.553610449095521      1.255256003862557     11.823587182808785
C       7.151100698123745      3.693627270834676      7.445694709086389
C       3.715836924500403      0.647149115503871     13.924092842108855
N       3.646197085364938     -0.036308071916496     15.244452131955459
N       7.203234962949185      5.478498957086001      4.057251943007380
H       7.176938457258899      5.225613889254793     10.168846426303398
H       6.790833794576323     -1.185914186340549     12.305112194771233
H       3.607787517686585      1.226016073912637      3.987327524846202
H       3.775949726072947      2.763843785566168      6.475861700265146
H       5.056134227386782      1.883769394499236      5.613720890955632
H       6.848846845948906     -2.450774852788443     15.957916106576405
H       8.109000414956517      5.035298455004826     12.752908518986562
H       7.946227353636708      2.699677016310793     14.080380755102428
H       6.207221385676759      3.012585999082788     13.973772101354800
H       6.907296265119428      4.037840078173946     15.914241991212380
H       8.322743653418241      4.633075562224229     15.208377924566735
H       5.508042413258619      5.268213263308452     12.727372103995593
H       2.210150236557912      1.532148663253366      4.842392018906062
H       2.694742691094238      0.609713612518917      7.105200574218324
H       3.853537664738079     -0.289006759650370      6.141611371951456
H       3.145741575975128      2.811601784056197      4.293027472451908
H       4.677175757543621      1.477859568437728      8.512346917153414
H       7.880863025124415      3.537786984249134     11.883262956469940
H       3.417169000563366     -0.445461704742935      9.391896114321408
H       4.298747185229269      6.240572172595486      7.223641367374030
H       5.683929903921943      0.180966238890481     10.434601692165845
H       4.819964664601010      5.048151082338861      9.468132156371166
H       4.323768491026924     -1.449585770994275     11.664767228565792
H       5.720625374072929      0.432159032217049      7.569079709398723
H       5.495348887272011      3.889657397676311     11.643286190210132
H       6.413656033967313     -1.075504793999520      9.458840161120724
C       6.394614180371231      5.670760460244744     10.802496153832966
C       6.108651055354052      4.741214526321301     11.974459182314398
C       5.475057337908389     -0.789885042003813      9.959599859400631
C       4.387655461213551     -0.618876094254330      8.905139649576157
C       4.693774330767940      0.530854847372365      7.950231813775739
C       3.740178573733220      0.606222056773541      6.763600893807736
C       4.008827135579514      1.842831408210235      5.930362398408788
C       7.399518284922715      4.212370468944252     12.593455513862711
C       7.196274611389089      3.475970200833635     13.909583252469490
C       5.182898129517955      5.978438320803178      9.930507200135597
N       7.319682600094782      4.427181376474202     15.051978017982462
N       3.186834413267857      1.853726153610017      4.685993335384696
