46

H       3.069259188577730      8.614416788900396     11.024262150902288
H       4.556776025301014      8.327367855681782     12.908415330427259
H       5.869348617119655      8.147611148024454     11.893903678385497
H       4.649477194973425      6.996950343622208     11.898063181508400
H       4.377531131197978      1.060194703582226     11.005895357066086
H       4.757040139474135      6.947261675049716      4.774215488734192
H       4.433047011408073      7.133774659016741      9.526106708654268
H       5.733059451117476      8.319899771468693      9.526380000533891
H       4.256193996730125      1.182779998403664      8.300749271339209
H       4.475948036060687      7.116203150605302      7.140636262182638
H       5.772101952470660      8.307421737487603      7.161774862992653
H       5.974200864665336      8.099127308684785      4.795266625740800
H       4.685667283429577      8.261635019405857      3.746906096759874
H       4.456860016699745      1.021270839414658      5.605733610502715
H       3.150645518187311      8.573782457328697      5.585047030170028
H       2.957419194232017      8.744865987324530      8.295996341693993
C       4.144906577370239      8.758621962123105     10.880709596839559
C       4.049379119469990      0.104866672304355      8.305736609474415
C       4.681044752674050      8.194573922316115      7.099694437009999
C       4.221893456635521      8.721098685197621      5.755188819194466
C       4.640649196286335      8.211577742899381      9.557384241477427
N       4.951581332810021      7.960927400058275      4.695054791218225
N       4.844811774283471      8.012121582543537     11.971552975961060
H       1.467864769119571      4.853243128413305      7.185613476663741
H       7.268152861431179      4.361189584964814      8.292657005996439
H       0.054198462095892      6.044834387624247      9.531740258544085
H      -0.002245427971878      3.209063865177908      8.365672986063821
H       1.674850260897337      5.012231944678779      4.814883043100243
H       1.564175472199933      5.075884567330466     11.908096918620288
H       0.259020657913277      4.882264891415830     12.929178216220269
H       1.410239973660846      4.923350955262556      9.545423229057239
H       0.325257777221083      6.205686761272993     11.906870606605427
H       7.378767955275005      4.534909169193090     11.040177125083781
H       0.115096017136100      3.370755537101246     11.043033630464096
H       0.445490940652136      6.150552044190251      4.777440146016230
H       0.389943782389145      4.821056714259878      3.767880563802551
H       7.464758936207288      4.511160296886821      5.584222137997832
H       0.147026704028241      6.016195937743801      7.142136830482479
H       0.181930541928117      3.326495948165666      5.660537492231716
C       8.456780264632286      4.423615004715042     10.885628475521143
C       0.313703392677058      4.978897223111044      9.577047828194113
C       8.362709359581064      4.279213153183433      8.321596781682237
C       0.374774159473665      4.941976674991532      7.119592140394896
C       8.537660020892902      4.384361423028060      5.760413837427701
N       0.650729104850693      5.138263956278585      4.712194788707262
N       0.537812133054189      5.194577237839535     11.988542063342221
