32

H       7.917919536704504      3.979343443848636     12.982258611626298
H       1.068176559066127      5.330335348591328     12.872237804422918
H       7.585603248953852      5.452065585082937     13.956330976866806
H       1.266001811466609      4.851630159818770     15.256116513125303
H       8.226762850162814      3.550177048903776     15.375230962690368
H       1.613897098719371      3.490839005308489     14.362534514644077
C       8.355799578286401      4.745502617767934     13.630162860766671
N       0.852851953125566      4.142647769184414     14.609054909584019
H       0.919365051998989      6.079288816404844     20.097970437039649
H       0.926858065227774      4.758310445201423     21.144919474272566
H       7.466339490503368      4.274493177040842     19.561567120964117
H       0.723291540993612      4.607651045342088     18.177472444665216
H       2.207876259892189      5.000323302335744     20.089475641417689
H       0.769286026205969      3.198282789812485     19.285201852656282
C       8.544799779606203      4.186025477302574     19.398783546635837
N       1.171096408390179      5.071242583890325     20.186803444234442
H       4.854317831330929      7.092084440865519     20.289423708987368
H       4.784923474329028      8.477263308916667     21.249993804135681
H       3.351071697852002      0.107948968146757     19.342938517700588
H       4.705288174159769      8.423195928414106     18.268336375511556
H       6.111412951641212      8.198465728872360     20.259644018498182
H       4.712868142514430      1.268549991174423     19.273051161327903
C       4.433719111367086      0.212328885745803     19.222575661058187
N       5.073159483025741      8.112695108768829     20.325208642488327
H       3.205925873575416      8.687963341150983     13.777352964087857
H       4.472137326630406      8.603061207937230     12.510285141419793
H       6.139393693282495      0.754630668250240     14.160094142429147
H       4.950636828783510      0.830602107264334     15.328850945202888
H       4.868796103096438      1.858034335406694     14.029501973468987
H       4.556230062165644      7.509788157714568     13.930882236984848
C       4.267027790496262      8.505205841338967     13.579575663659256
N       5.115284265866045      0.883218761086333     14.311957707839662
