46

H      -0.052888896354962      4.478376701911323      4.051863296294385
H       7.502708708646888      2.987992112843176      5.628289256662875
H       0.630658877582305      2.529796987189450      6.202267563670615
H       0.072269533442511      5.661972160034825      9.246051192065687
H       1.500031778769012      4.027501454762724      4.521515418637429
H       0.449042012374752      2.900072818698115      3.909135354584742
H       1.599081264130213      5.719197932077396      6.002294000884778
H       2.210920324016441      4.422378271111413      7.049234350522969
H       7.650469799787284      5.967664386946093      5.436748050329258
H       6.473952254492246      5.131759686660983      6.470757433119703
H       0.587220335180577      3.158855844060256      8.507968105489818
H       7.355087907960601      3.209542190787669      8.077685500440326
H       1.480144169944737      5.879301667363435      7.735640598046756
H       7.548666862294224      6.391584045771355      7.126419989215489
H      -0.133939495789419      4.346846299471779     10.252334195568070
H       7.061939178466951      5.017070644114146      9.341975822890941
C       1.409395793052538      5.155058032183101      6.920110404944251
C       0.005901192530511      3.365474509008322      5.875447963379088
C       8.267364611748222      3.814970204794896      8.118957790302057
C       7.484089394221766      5.547864396648549      6.435828680852623
C       0.033408740541900      4.506476304869826      6.885770626713089
N       8.071674388153864      4.774636005777308      9.248545597160495
N       0.502015670876637      3.736774121728409      4.514779711812560
H       3.087102158803684      1.251738926229104      8.121520586386088
H       6.464221671073808      0.051995543039196      6.988399883528145
H       2.801489076998453      8.375437926138064      9.395992912321548
H       4.703748288767599      1.558717169379385      3.844384789444059
H       4.325061006051819      7.729094069485154      9.185886242449124
H       3.236901157498925      1.467958948596656      5.670902975545316
H       4.203394324675124      8.904446624353378      3.989094487462899
H       5.755187492704906      0.434632296654985      4.461170997682872
H       4.874352650419451      1.934302940750611      6.136180263548774
H       4.121555786025811      0.120920087129077     10.188503355737177
H       2.216995568645470      8.247252804615401      6.522236399377693
H       3.397629935359968      7.415918180356538      5.489223569188875
H       3.298049356086644      6.993404393803072      7.179321224892825
H       5.739428879687224      7.518419408303065      7.681263726743247
H       5.859214299855915      7.672961070822796      5.947385266061918
H       4.831895904761774      1.311180495025648      8.442131552916793
C       4.003103294057804      0.652093628390334      8.165475196479033
C       4.286113147545931      8.880575103288969      6.825130878823586
C       5.665465321429184      8.239260466435104      6.863015064417896
C       4.255265085858266      1.094249046805388      5.810002765429235
C       3.229158484651354      7.836030747140929      6.487808617390810
N       4.756587209302777      0.722995665216423      4.451183391425590
N       3.810671791136221      8.618888533019994      9.299480941754712
