58

H       1.599806792788214      3.888053944349009      9.858481478307580
H       0.418512785360679      5.136538813654282      2.616230299330856
H       1.535254338304152      3.877094253086006      2.678979048628096
H       5.774397153819494      4.366473560965841      5.368941439729500
H       5.792102350875425      4.374131270994216      7.135686488057555
H       6.699577887936596      5.618129576639060      6.238119332288910
H       6.604052608719986      1.965178750906488      7.130061985466312
H       8.064773301951263      1.494663438097701      6.244676211069667
H       0.495280141996943      5.008407770983466      5.018281686873495
H       6.596299501103723      1.954949130097499      5.366474468990765
H       6.926746785535595      3.867887141116121      8.948248101061793
H       8.009750523044371      2.455039942282127      8.942038013922415
H       1.341098151245685      3.454554159409279      7.387022542402643
H       0.259367174042530      3.776871654070372     10.876726611912469
H       0.484680006374294      5.147793843408143      9.926949542690901
H       0.181960313623890      3.757621168144301      1.680859148439477
H       1.318829939914672      3.448003693374641      5.149217919156007
H       0.516095489827068      5.013119509733828      7.532513017225977
H       6.876402774631218      3.868681441908570      3.535742698790337
H       7.951079063035555      2.450048075462899      3.526630088108478
C       7.653371023763015      3.653389069946927      6.236027313166270
C       6.410825527359983      4.556041618238643      6.245223103062671
C       0.327508178446865      3.918643889003107      5.045499385262184
C       7.916236312975604      3.539020574838661      3.665639751246411
C       0.350820801932672      3.922954296349407      7.509363986825933
C       7.213390433219195      2.184264206582051      6.244337124651415
C       7.965891839987588      3.543368118528299      8.800601430310905
N       0.582799443448492      4.108701811746852      9.947027387956968
N       0.517361949983295      4.096983226930414      2.603981778420732
H       3.902745862995916      6.486763898364522      3.424711877194039
H       5.729595502093122      7.974934446514100      2.669690344654807
H       1.644201937929507      0.364784216574207      5.390831548976985
H       5.758905518649029      0.079142322479509      9.732977415869525
H       4.431548496573653      7.941745906002975      1.606140925783544
H       4.551161726267577      1.317334291329298      2.677137240757950
H       2.852794055231702      7.925368397254005      3.469073236309527
H       5.440842290060553      7.439822264377201      5.072079063923575
H       4.598031155573172      1.078060043880239      5.022462078745728
H       4.631394995375862      1.357794634986150      9.809356386350588
H       4.557502575863086      7.974403001197845     10.783515104765959
H       4.592968686836332      1.118518477790545      7.451617534798140
H       3.987679843861723      6.520256657917976      8.984855919884447
H       2.921688201704478      7.947668790027170      8.970652620735779
H       5.473174294204910      7.499222396681464      7.299478629418946
H       2.555500414631630      5.909959698863148      5.352299984274785
H       4.017830891437566      5.470078923257130      6.251272796266493
H       2.547083834544114      5.944020735626482      7.119694029319043
H       2.570051020715745      1.638996197224577      6.226322069866590
H       1.678224019514454      0.407434716845653      7.158144443002875
C       4.462693596300722      7.938436585248573      4.971063741021835
C       2.286539817937740      0.575869011733782      6.257881563672024
C       3.594268601478571      7.624277311118208      6.208776509588710
C       3.161920405543564      6.153683189144973      6.234474513751274
C       4.485564905185559      7.974393309612068      7.420730061720874
C       3.949345458874781      7.601594849799564      8.795995390533561
C       3.881521287004071      7.568662237143120      3.612885413639752
N       4.657188363491493      0.277742480890673      2.607825921841680
N       4.749892096504421      0.319595700476896      9.872278304390212
