60

H       7.485764811094967      2.978001236444463      9.000420513123197
H       1.818337746623294      2.683020661041784      6.852461922911947
H       1.697963069542150      3.913382519024470      9.112002344633165
H       0.066949668118363      2.735360639312622      6.849620012833670
H       2.075366045739746      5.016740936599861      6.763038102208887
H       1.622191495552611      4.316288407674180      4.617055619116663
H       0.637442129013339      5.779050294869527      4.816982895494635
H       8.066000070651379      4.205031135840310      3.653544359531524
H       7.398191864317705      4.171084042989381      5.157734087908728
H       8.467613839676748      6.465081002239768      6.818597987038283
H       0.813679029244668      6.155014589844233      8.244247158788475
H       7.141752801064597      5.695946382277875      8.765676060437942
H       6.983577560603313      4.555769235991598      7.459678488914539
H       1.026034198584878      2.289542912793676      9.160165463010619
H       8.419467485477275      2.943418568084851      4.695412489437572
H       7.156406221189149      4.479784640950157     10.888055423145905
H       8.418362803972416      3.263004642040849     11.178602046540346
H       1.394121830806265      5.028402055932980     10.784613755034353
H       0.153502414624432      6.157898631482428     10.666083995148409
H       0.397026839763152      5.332597587969865     12.075573827517362
C       0.959753893818707      3.259689224542427      7.214789838230409
C       0.880285683185305      3.286974623095312      8.732699216932632
C       8.194936075235953      3.811564344278994      9.100830781169847
C       8.149736929111556      4.139337544849503     10.582244273620391
C       7.706655661277396      4.959254857646444      8.181815108772392
C       1.029515167124909      4.691115806028004      6.665534364259587
C       0.164307458212596      5.659766193287968      7.509305161743349
C       0.779145437861655      4.749732511681675      5.162478203948853
N       8.265718191750842      3.967534820584969      4.640156925721083
N       0.416218507262048      5.230187281793917     11.050652111770416
H       5.230847290374939      1.385661124441825      7.067297905921072
H       4.626361584398436      8.620209175830503     11.900975259139599
H       5.686153280139802      8.590169055797917     10.624306606380854
H       4.312543347395534      7.628133319205086     10.611295297893934
H       2.929855374646027      0.959363803771712     10.626747684368052
H       6.149871930374272      0.229810248357570      4.695354260951244
H       4.219435375185861      6.736151040951579      4.723798749647496
H       5.918142863419328      6.734975022822807      5.221081661433378
H       5.106573153336407      8.464565612128789      3.579207556856492
H       4.519446101456139      0.586971671495912      4.770792523436094
H       6.012190901084871      1.188097564977153      8.611958511502417
H       6.564146579038019      8.007552035097202      7.259788670863462
H       5.613340844150683      7.433244920063556      8.604126152979164
H       4.439173285899464      1.886457418535800     10.497897096333435
H       3.133679442244903      0.303493038034239      6.129997597003760
H       1.843472623738984      0.146813165898102      8.288808927897726
H       2.374219667462382      7.467982587697038      6.443068880262457
H       2.948609437842891      7.628736382607609      8.915430661604351
H       4.370025365742166      6.373957634081112      7.069980174838322
H       3.427519964741046      1.869187298032999      8.359041768392677
C       2.865066048352874      8.522775395294421      8.277882136297331
C       5.226475753227120      0.767419490727985      7.972545681304045
C       4.971319464935758      7.276156068222448      5.303381635639539
C       4.518960239987784      7.414563303033345      6.746323144728335
C       3.159657566603493      8.118243342836170      6.841434482700353
C       3.846768682814275      0.897727513116010      8.655643627732353
C       3.927798364805084      0.975630112913716     10.174238552517057
C       5.559618186254564      8.048578259243618      7.697973207330379
N       5.184578306664716      8.583360059517787      4.599781806133190
N       4.678733366297621      8.560351272898476     10.874098365180098
