16

H       7.106697332569077      4.391239531422671     16.676476560019193
H       0.265596238754146      5.655444724951370     17.743773503704148
H       8.163308479215925      3.376280261466767     17.473106036271513
H       8.198827150412082      3.467238677777889     15.818180094161246
H       1.396963489606531      4.639616265043637     16.801747573883066
H       0.287204319247668      5.760836268075644     15.956166603191434
C       0.412547001718652      5.104964046012251     16.815782859136895
N       8.073317675530301      4.021135405083137     16.675806765609245
H       5.779473711450689      8.771696971319404     16.629216936956915
H       2.848914089048575      0.573165638483744     16.613117517985575
H       4.598826644870646      7.888954550108263     17.643306004069267
H       4.047549577023684      1.507325632239490     17.317344293962293
H       4.526840493587940      7.750080852293928     15.860392524998385
H       3.974416812293704      1.367630116403175     15.668034719954505
C       4.754926279962628      8.406576828245933     16.697816395313968
N       3.844433975750335      0.851457014066088     16.549713978947185
