82

H       2.419260169202226      3.217513694084089      4.379600462435402
H       1.645863804263634      4.453786729383801      6.684195110904757
H       7.288949824971991      3.040035665072504      4.575539518774682
H       0.322617868624190      4.597490129336758      4.703116074301809
H       6.959714953637918      2.782209542855975      7.009920732103502
H       1.417634365236158      1.869538786643492      4.386057603055312
H       1.224216755835150      3.042709395296290      3.231498967373871
H       1.501388941004322      2.699741609226591      6.775677970668466
H       1.025465321665502      3.529512800973229      9.203429390647832
H       6.725720768455240      4.575524815861594     15.903678253991949
H      -0.500849152638084      5.689804522801527     10.956298091805110
H       0.418334461135781      5.156365817251690      8.930273016447380
H       6.827685237467731      4.484947084410674      6.644897908020239
H       5.118445149960819      3.771820106022353      8.122094611410404
H       4.658477258486807      4.244514996999321      9.758528496037671
H       6.523610791931755      1.751897292081815      8.934496124260601
H       5.388212084767373      6.547171961679862     14.214646041052116
H       0.451156659631513      4.320168181591547     11.499815421536971
H       5.113819401815390      4.803348771770021     14.360509486350091
H      -0.228654136232061      5.981233557941919     15.981128556782462
H      -0.139099174690497      1.994170037268707     10.731134325324081
H       5.880802761143296      2.141941777122053     10.530086741884599
H       6.066424566231456      6.047482843593416     16.368873311118982
H       5.282846112030222      4.824513220070222     11.787646339288774
H       5.510978710648695      5.389602910922466      8.707822631916679
H      -0.521697505866005      6.289187452183993     13.219351606491280
H      -0.018327990434881      4.805305734151703     13.995836678172948
H       6.215553877641082      3.446371310239284     12.356491277487896
C       0.469278588733979      3.588626522380147      5.098114899097441
C       5.443887615952724      4.337417627542473      9.000881885871282
C      -0.250769616998684      3.741430789081739      7.472188396388976
C       0.130129499479915      4.095706143462061      8.902993003259203
C       5.882998524043145      5.577688364464124     14.304468680429979
C       6.870784265129854      5.316817784107489     13.170238817225846
C      -0.570327970919201      4.624576695702395     11.221006055196497
C       6.793269931120738      3.837531913936696      9.527700481066493
C       6.702481171187171      2.343285768036059      9.839494305133512
C       0.947309745040416      3.619272105579522      6.539814705567143
C       6.298187758219829      4.488083044338762     12.021947187776080
N       6.590384736359465      5.558380916778652     15.619829895158542
N       1.444597249499610      2.892750450188189      4.221457242218657
H       0.813478802436852      2.614142640369895     16.033012741804118
H       2.051398130551247      2.600796193849808     17.165686312440126
H       4.028441098653745      1.773055693561358      9.146932831733912
H       3.676539165526781      1.983881605327670     15.566030119500905
H       2.304754502156180      8.685605506892479     15.855965593148600
H       2.800539740978171      3.191838655845461     13.604687299649692
H       5.024307267866095      7.474721053378188      3.884604036447033
H       4.740774529665919      1.166937012018780      4.203176900133848
H       3.487037610882998      7.914625724405274      4.389619649031997
H       4.361507505286170      6.462386515531074      6.007940931626121
H       3.524682335799679      6.802347583902382      8.368318362613056
H       4.563887827910409      1.518632047982509      6.697555804467886
H       5.083699840392913      7.547522696698497      8.702670085290157
H       1.302579393301665      2.254709235162654     13.640779460038543
H       2.501859717351140      8.016538989180090     13.492789992713508
H       1.961829334202923      1.875231228536865     11.224648432544498
H       3.668612646355395      2.277782522791168     11.267429941300096
H       2.240319027531938      6.297939707342560     10.191096917104820
H       1.881656953689495      6.737419108376046     11.858186605961498
H       1.132499759442914      7.639489538572984     10.526365884960734
H       5.363244374838063      8.025160694310671     11.376453354403047
H       4.311846579189157      6.929637274913070     12.287727210004954
H       4.060463248064027      0.999452621566594     13.262943187341982
H       3.039277197922419      0.709432519452637      6.353218100626459
H       2.025743494741657      3.773800872310681     15.977563166087219
H       5.833239454182930      7.448229177403074      6.123090534648171
H       4.721038067899950      6.562172894975688     10.616868428486431
H       2.434003787145260      1.177586998468586      8.725329966316522
C       3.421762551833835      0.861083797119191      9.093546899582313
C       2.953194872444770      1.467441782227526     11.470581368654500
C       2.621930985284476      1.871130326713952     15.298752566279122
C       4.051618578454597      7.765948194318640      8.398858793821937
C       3.013945169231070      1.130523979145451     12.956677206905088
C       4.072514809070743      0.538184918003677      6.677667261554074
C       4.748335011693966      7.486359366852218      5.981746157031214
C       2.383363913713565      2.201200039515442     13.837219112084181
C       4.485020769395825      7.375533304828938     11.305182864276896
C       2.054572870743426      7.147169791931337     10.857331429298311
C       3.233641670726427      8.128335792376483     10.845594684877778
N       1.831864039773913      2.772487168559747     16.177619642149285
N       4.494665367151158      8.002606363717941      4.604873109318819
