32

H       6.670362568710720      5.847449843089946     19.665771011636348
H      -1.130916412629759      7.071688661292597     21.250268849946391
H      -0.778911145822459      4.157532119608036     21.771906087174390
H      -0.749398905755112      5.453842460292798     23.010531020568909
H       5.437794657032514      5.928541091176985     20.798093776951934
H       0.545363003146626      5.359987802597955     21.781951684135233
C      -0.514173363275761      5.195029829313079     21.980589233915694
N       6.457784894836884      6.056314152236536     20.650637808719736
H       6.070201124156746      4.276112950476284     26.131268319470731
H       5.804313576064645      5.228974740739361     27.619793646961270
H       0.466442180873773      5.307369823451686     26.355758332800807
H       0.219352939618666      6.210852524218898     27.755699061018476
H      -0.714508458023503      6.479048408875595     26.392419766182098
H      -0.681229538702705      3.994457616323285     28.002787648372617
C      -1.218346725462969      4.745259585902577     27.425900449273978
N      -0.243150941703897      5.756128315060299     26.953896289380697
H       5.042136048139211      0.185934747193138      0.282450464647186
H       3.498465697628645      3.154193655477710     27.220377511678439
H       2.914987585257474      1.720469101409497     25.372289982933708
H       2.912972315038139      8.204158533288306     26.680535477916919
H       1.782857000233960      1.550052508441884     26.585110742026195
H       4.723161973511830      1.884842682704584     26.936176796439867
C       3.702085876605909      2.083755830395378     27.263152977776215
N       2.762727062833334      9.229274705152731     26.664514512838252
H       1.031368976953354      2.310019073175121     21.174364046245675
H       2.352508145401520      3.406336656772656     20.674863483091816
H       2.716823165830470      8.544723335587600     22.152545240271156
H       3.939992562326159      1.660414399049802     21.176978265711170
H       2.725282304507585      8.877369492930340     20.525283782216970
H       2.184530505879811      2.931492295758011     22.392523134744277
C       2.062397089001562      2.612787076526887     21.358782621322227
N       2.934135053407005      1.436624924872819     21.125138557915275
