58

H       1.176285573635292      4.752151897895920      9.328111005563802
H       7.043389566007039      4.298606932951595      7.996330930766770
H       1.585409008849535      5.036594944881189      4.589151397989468
H       8.572019279210078      5.988089429393114      6.942077994653782
H       1.307394945164490      4.815699642618474      6.959794990663637
H       0.048454709409341      3.353249391656653      5.347943550092701
H       0.316957570434838      4.906528438753575      3.512402083963292
H       0.375939178834250      6.200874829525773      4.566454686260744
H       7.319816706425838      4.556686950678785      5.311539052296067
H       7.067090988244010      4.295665662522535     10.737119169247485
H       8.362675451625460      3.127227105608480      8.021904382122100
H       8.417141176240035      5.884363632948986      9.357044918744075
H       8.384842661905932      3.123495284265700     10.685204258159914
H       0.039400028452236      5.981703104930723     11.749688508344011
H       1.348182381430352      4.804065308612074     11.699055628020631
H       0.391012193000885      4.906738278249532     15.159720775073986
H       1.649994178173664      5.037171610369402     14.072356244304636
H       0.438595206057712      6.199294832044038     14.102547909932614
H       0.108846867641201      3.349355234075946     13.330617313915418
H       7.378762372602102      4.550741854359459     13.407690405186235
C       8.158054306104443      4.197706066274969     10.656720917915919
C       8.135661254470714      4.201204452427412      8.057256407474288
C       0.216861440571009      4.913750229065600      6.867276987592686
C       8.385570014696899      4.410406191199636      5.513822828809652
C       8.442806358108752      4.405783466645222     13.195871733596698
C       0.078199946401730      4.810824973534256      9.337821891159006
C       0.259367639371658      4.906765619781741     11.806064957480771
N       0.565856692833723      5.186841078389932      4.471261181740790
N       0.631052115166506      5.185886385448796     14.198310640906147
H       5.875764060093907      8.054499615353183      4.599319847637356
H       4.656212693667504      6.900978463462198      4.572113268746406
H       4.309346037350175      7.121440340327410     11.758445990255717
H       4.682121047373292      8.200610328458554     15.166003434873401
H       4.723546575886070      6.906607974862596     14.110077403287894
H       5.939412763999134      8.063978347224282     14.077669400675575
H       3.090887547379583      8.566116061264179     13.402192895209600
H       4.409182222964098      1.026895618863507     13.334512074003802
H       4.113948763046841      1.250291396748681     10.673350046913571
H       4.611692886548554      8.197654310564564      3.519676699684903
H       4.360896088214194      1.020143064243469      5.362753643099641
H       3.034692876719175      8.567942775310271      5.295248866711671
H       4.247282913726879      7.111495901074156      6.929961419589530
H       5.587399916901102      8.253568696788202      6.970230500278116
H       2.754510373689320      0.101765706389497      7.986686840612190
H       4.090778189272274      7.216811050837067      9.348612899935592
H       4.098473242813420      1.244670995996504      8.015432337410058
H       2.777793773606967      0.099520460890493     10.733188686729182
H       5.453906954420919      8.318341310393402      9.335126911922476
H       5.632279740007080      8.282899352886847     11.703752928362766
C       4.542410621521525      8.193697178262317     11.812640320297962
C       4.101306978135123      8.696631270269650      5.504781045905615
C       3.848505423451879      0.175779938527998      8.049537242603433
C       4.354743747869813      8.284300618107885      9.344557444394226
C       3.869928508162411      0.179772431637578     10.649049924290875
C       4.155337557491814      8.702332283685260     13.186560999372348
C       4.495155339021462      8.180268038288453      6.873979340537890
N       4.855203959947999      7.913392632772575      4.478776965517059
N       4.919992563453760      7.919350346258259     14.204649508338807
