16

H       4.635131078745095      7.263129716621086      1.103880371937488
H       7.128006925117979      2.319226512749536     19.438190115621296
H       5.690079691406654      7.518980835883419     18.585715710862093
H       5.859641364007250      1.481346859379024     17.582303840544409
H       4.915658154048591      1.379477765889030     18.967465372703131
H       7.876011097451227      8.289775465572397     19.082142733592690
C       6.966435497652531      1.249196454298144     19.332687883002041
N       5.761310179470812      1.028394889563554     18.498754380364321
H       2.859742926599573      3.282739010447586     19.146541797291267
H       0.490836171286180      3.659052202088304      0.781139374482870
H       2.031475747524545      4.673771359535795     17.341368776775138
H       9.781343625456488      5.975158271867020     19.100306375664747
H       8.777093513708873      4.665277219068411     19.329637862522571
H       3.887086569322216      4.716716912791417     18.871685415136639
C       2.912198366455932      4.367722426406867     19.208867255178941
N       9.731221626412438      4.939821562799166     19.059929764574406
