16

H      -3.692948623345653      6.457846428457040     20.307013536207648
H       2.853456547550767      5.460342245452193     18.765565920204601
H      -3.570599709550982      3.599231469995158     19.493840642603089
H      -2.156982506088706      4.584118786036243     19.971496601455396
H       7.637577499801609      4.303288650270875     -0.489575907922596
H      -3.096851327216548      5.004949258056314     18.506504156402869
C      -3.146849871733095      4.602527771774408     19.516150544962020
N       3.828823754387602      5.472592709025131     19.101948975788115
H       4.712141520356217      0.444147577231793     -0.121539171922169
H       0.713873511982295      2.625213111513426     19.275358497343483
H       0.067251050502770      7.465706056943848     18.894735560929622
H      -0.029208901004495      1.004898739681526     17.640526742568916
H      -1.035687764515050      0.935291459211789     18.976265432934905
H       1.924085943236424      1.345052193638441     18.993455169421274
C       0.935791136052697      1.565035021574290     19.397436242440136
N      -0.112430249119177      8.483173557138572     18.806406412731519
