16

H       2.077300321235438      7.897429245462945     15.371705588006542
H       3.225836179731978      6.742162854201561     14.981418303750566
H       3.449250428269103      0.362085412149391     13.537837947579753
H       3.460055266761569      7.700841989696927     16.321688905164255
H       3.689328174271425      1.383637928601101     14.993728461608841
H       4.910250289479431      0.142360146385745     14.547525907066428
C       3.844380838224358      0.392138351603603     14.556045461876458
N       3.103154538037216      7.710838305019202     15.347898498298372
H      -0.320280458784280      3.416655609305721     13.727762744794093
H       6.339014428381081      3.278195009679119     14.413931778140940
H       0.961289106194318      4.545175892390496     15.439440138745988
H      -0.327783931207672      4.445966206956136     16.522532722912782
H      -0.443730384857562      5.406948702476223     15.150635433007889
H      -0.179344415156362      2.423364453746694     15.214451482309244
C      -0.608872251571052      3.329610482781081     14.777740280061103
N      -0.079241753601466      4.507085946600584     15.519566923320602
