46

H       4.527198997891244      8.086666757936840     12.608931950894654
H       4.534928078243227      8.029479379951365      3.479548260665980
H       4.249201990961830      0.998688650693351     10.741050688325078
H       5.820834785058150      7.991024640727455     11.554268787968718
H       4.646109998117271      6.791836838247941     11.558671046971167
H       2.979204523368817      8.377248251094391     10.781624600950190
H       2.794359131830781      8.536321279807860      8.043299232829561
H       5.825069421636845      7.940182290265280      4.539053522288650
H       4.646992268814175      6.744148055328479      4.542209551574765
H       4.258993676216359      0.960431541567961      5.310045607380716
H       2.982056103186406      8.346025632985866      5.296025515371562
H       5.604176849852204      8.148606821165169      6.880028540864725
H       4.346919440272611      6.958277529706659      9.228508801444821
H       4.064596428540842      1.140995180958986      8.016705648855448
H       4.327699294985016      6.935911277989139      6.874156116099374
H       5.608868558665711      8.185846125487396      9.208521387572915
C       4.048226257792656      8.521486467606556      5.473849001027003
C       4.514385703648662      8.017806511452784      6.823182098598918
C       3.883190127919525      0.058127606857203      8.028435788079772
C       4.520672747568423      8.042858165619030      9.265281465585812
C       4.045262297108844      8.557229307024995     10.607414320619393
N       4.808808953613933      7.762309841909302      4.435488212411641
N       4.804636198570662      7.811258606974220     11.656301580055855
H       1.569808055803337      4.972363671257757      4.542179431313453
H       0.389673515399303      6.166190118728093      4.535947235290873
H       0.278418273637980      4.870487987407979      3.485631136693853
H       7.054488208561247      4.404903170283173      8.046646508989484
H       7.244212481957970      4.568592100032215      5.307145277946107
H       0.008804607084176      3.332942114218846      5.344728524657302
H       0.076130895725475      6.000994628881172      6.864774672955622
H       1.351929601780845      4.787945607995416      6.888365692819082
H       0.379076166729388      6.214390644038078     11.553002589029104
H       0.273140919943189      4.927669217993803     12.614870777498238
H       0.048538856859742      6.024495004433120      9.220764417475502
H       1.563105982636254      5.024255848921936     11.556024134326032
H       7.238132627542836      4.599405683405281     10.798937164429796
H       0.010749812696224      3.371953710115325     10.769823764121403
H       1.341672768106499      4.829636729312191      9.215254593434887
H       8.339536040766001      3.191417215798477      8.066292582861363
C       8.144760359615152      4.271953184142649      8.053336621639248
C       0.262264912630668      4.918463228352266      6.829136487085355
C       0.250067058865567      4.945283633476148      9.271263119322198
C       8.305582216589539      4.434056432728777     10.619041952697009
C       8.311052314841950      4.397705097840289      5.485429251326180
N       0.553010398161960      5.147462347409058      4.438641771933581
N       0.545936761851184      5.196955770785592     11.659201220611207
