16

H       3.633551652086108      6.567425506729395     16.266753595115013
H       5.302665518344436      0.405322667646577     17.112938074988662
H       2.454113595210045      0.008458639126977     16.335478231526871
H       3.748420470464834      0.114777779706994     15.278493927001714
H       4.083971092145368      1.711880688550484     17.036638375978210
H       3.991523789107678      0.461036971200527      0.430986488335654
C       4.246248819091111      0.649921503928831     17.225754027072551
N       3.478058562766599      7.585896013045467     16.135881135081963
H       1.024137017872144      3.876412479770844     15.884654649528416
H       6.792658619891809      3.537938299490469     -0.054796135845367
H       7.461418967858600      2.217373029262164     16.700845534911945
H       6.454678650196931      3.502981918480323     15.969789934265142
H       1.186631250805135      3.923813981085568     17.537205821725770
H       0.308847655119301      5.115532959080037     16.756897030086435
C       7.153077794670106      3.260852383217216     16.766469918693051
N       0.533641166824621      4.105911074447408     16.759876244834672
