36

H       1.843405914380772      5.297822310392760      6.278833162317645
H       6.206707478271981      1.772342200630077      7.314627203810403
H       6.537794698575276      2.489760931453594      4.945844121533710
H       1.594562057905497      4.102399967612860      3.927955219968525
H       7.680962672936111      3.829488572574617      3.412358315862296
H       0.494821146129745      5.362968703058892      4.032338228628348
H       0.369983080480751      3.240077053189794     10.181068898407645
H       6.455818976117790      2.969253794338951      9.666332606550109
H       7.553393894474266      1.707273388592266      9.561544143176310
H       1.512147107106552      4.580698196950216      8.647674058625864
C       7.697842572303034      3.138482744612765      8.059583852750887
C       0.352171882416000      3.931742901199507      5.533990305935294
C       1.117140810866679      4.530490474529155      6.527955065900248
C       0.938775315235239      4.128224093358187      7.845634871406085
C       6.932888834150777      2.539783634286390      7.065614497804777
C       7.111202995884821      2.942120537630555      5.747910020394650
N       0.597558379821252      4.324890509308068      4.152729142456677
N       7.452413679678259      2.745466522133362      9.440954678867699
H       4.156052402978265      0.067657268509674      3.668763047437985
H       2.346341205504837      1.533080696906806      6.502967901405861
H       2.555520572261688      0.338388045271417      4.147933645503055
H       3.657935804586569      1.597952951266762      4.234336180998048
H       5.323279492334660      6.254586448574276      4.727448981298994
H       5.693388365528597      5.536706531364498      7.090339581334793
H       5.484243342540590      6.733443556439435      9.445933679702520
H       4.384077310833655      5.472274383831525      9.359557160367512
H       3.883653186105856     -0.525576568581211     10.379913607696601
H       2.716605540918948      0.815510158003797      8.865853714169335
C       3.824227518337915      0.166309158716138      5.733203336122556
C       3.276475293445511      0.362998607026038      8.054379478775015
C       4.763416167754822      6.707020092004808      5.539000116939952
C       4.963453461295682      6.304440512282323      6.853519351096402
C       3.076403166950634      0.765485895898873      6.739837730377552
C       4.215654497392356      6.903640809645855      7.860173695743176
N       3.556278468075526      0.559864017784982      4.356283511901323
N       4.483908554737146      6.510454302947317      9.237286844667558
