46

H       7.722313784267282      2.411980412579831      6.367717718496587
H       1.216724270846025      4.043581040885524      5.150873229452927
H       6.391116455584577      3.576677389079757      6.362539126296350
H       6.444299210725460      3.703511741152934      9.000063825554022
H       7.849557642262618      5.234633638848789      7.592427598052391
H       1.217868977956758      4.041912178714479      7.632538878471407
H       7.744090929101251      2.484098962821820      8.983103596257983
H       1.260925371987188      4.072528050287445     10.083991248481821
H       0.061115959442030      5.248326342240111     10.079508937213971
H       7.815589537327079      3.863617730473973     10.970021004170238
H       0.057163600055932      5.206914275166572      2.691408865556149
H       7.813064617078245      3.814728388117500      1.751436253011028
H       1.262679916356443      4.037031219618698      2.689308759194283
H       7.770290718035552      2.450879326741841      3.754839580781579
H       7.834762245333079      5.220566623070903      5.109063149140793
H       6.451924605642609      3.650332217743147      3.721033643388428
C       0.118630097468521      4.139764473677981      7.640607520271627
C       7.530007899852719      3.559605551093168      8.900009859470890
C       7.539556186826263      3.523902468889413      3.824186442014903
C       0.116438628947087      4.128269878681681      5.137455336909139
C       7.491389175360977      3.491083953568668      6.362349797493477
N       0.226640967448310      4.217267542588050     10.096388099429877
N       0.227488247016801      4.176612118743074      2.680546187501155
H       2.654955215507390      7.753817108014958      3.664951533813449
H       4.096376293646004      0.032014909002080      1.784408589629128
H       4.054678086682679      0.068570677242389     11.006350631309568
H       4.172721867655372      1.416377300659259     10.011931966007108
H       5.404395136960253      0.237226675311999     10.022487138120939
H       2.630844169406054      7.776899840996196      9.059615263804448
H       3.944486153043292      6.572354364948578      9.048627081746407
H       3.967189681728428      1.305610936076306      7.608514743585683
H       3.881853525736923      6.457593141144899      6.369480786000608
H       5.295868586557127      0.137488945660020      7.617860586044764
H       5.301882308830522      0.147084784338504      5.182930746554151
H       3.961543615782335      1.301995882252339      5.172077995318744
H       3.975438295513089      6.557517774039224      3.700719654847564
H       5.435794932662380      0.220172573127092      2.777245034073525
H       4.196541453895898      1.393539897150960      2.764564202837469
H       2.541474295887742      7.612645871033367      6.365321188222252
C       4.201103712210056      0.224850012945336      5.150235790147286
C       4.195735206709587      0.226258855307049      7.639294547415095
C       3.714547127074258      7.641201395783021      8.932050093101212
C       3.641764341475324      7.534290003034590      6.368208891411599
C       3.737996046358231      7.625974171506280      3.805244466744592
N       4.400645712174142      0.368066030684030      2.715356916492898
N       4.369786400545882      0.389849558212298     10.074062737868442
