64

H       8.159404558900226      5.369848166658151      3.827481208436347
H       2.354322375665119      6.500509565266563      8.584365757673854
H       2.223560786625279      6.266381153913267      6.854622906650350
H       8.603568729247634      6.931094656888681      9.457295590526272
H       7.365531340544869      6.157530747291127      8.467816970488048
H       8.594057130958181      7.224307323574518      7.736773638213908
H       8.307883204497950      4.187215796593120      9.853585065549542
H       1.157698975771896      3.341214396320372      9.087766738847296
H       1.373798184565509      4.240646300383084     11.238571440969695
H       2.900838000424995      4.983432869134366      7.855468909621472
H       7.340559493778356      4.216197732303537      4.652778089631809
H       0.312425088208076      3.919482103613959      3.989940725403599
H       0.865971579594407      5.891878714106452      5.368700709081600
H       7.809097895179907      6.018569802522405      6.076650992161085
H       2.248689784492478      3.870219356764453      5.931313383214288
H       1.015384935479120      2.632851248862677      5.616945379253099
H       7.855435986469772      2.826822198737504      8.103681880617099
H       0.973519043240595      5.769473179881184     10.775724312275532
H       2.411090307461066      5.043316182246516     10.245519878843522
H       7.366096096521363      3.011125032673475      6.437813811829748
H       1.718182551741603      2.759961061081111      7.208336006243103
H       6.812971783204326      4.192447446525497      7.633198498920835
C       7.662043603315952      3.574426407482136      7.328105110113487
C       8.922946279522048      4.387726003241188      7.024345875567401
C       0.680667559312693      4.306266868509080      9.261607069673829
C       8.643207397494566      5.348865280277828      5.861529553392470
C       1.382510562286907      3.355088646588032      6.356392645637354
C       2.127815143322828      5.755186949627719      7.815522454434939
C       8.419869413737352      6.451636399943913      8.488598831732817
C       0.712898877432695      5.203591065230499      8.014102121580905
N       1.402588674617524      4.894087642259501     10.438702484259842
N       8.265056221248642      4.666903514427982      4.580460561798987
H       2.652958222426369      8.504191676762847      7.082123910026509
H       2.536952793611442      0.640765961629349      7.846642218871178
H       3.755806016763722      8.141081087478735      9.150513693389371
H       4.011751530837565      2.166134535228961      5.340125686840022
H       5.872267886537702      9.190393093964401      5.299216196781358
H       4.857245009563896      7.864798007198074      5.894297618858227
H       2.237482954969704      0.706185292026075      6.129625333341306
H       5.608558171785993      2.133712809663401      6.066186852152473
H       4.193683794410121      2.612289596960114      7.016517824950338
H       5.510560950714205      1.625229994060420     10.899938931216399
H       6.608215099658652      0.578279406683619     10.243107157590813
H       5.165728119602115      9.362434812228653     10.941182992798357
H       3.968685498795526      1.379126697447736      9.132004987235362
H       5.530951148890334      2.038075485393569      8.634545634518988
H       6.851394381970899      8.351184377094810      7.056183073235875
H       7.057307143709950      0.739703374016214      7.056868373702754
H       7.317690414563755      8.998456998923940      8.609981475807167
H       4.673445592124841      7.250901568824485      7.920233172730282
H       5.432124110681744      7.663705303235495      9.437265724206497
H       4.094973068190916      0.583979374501608      3.736968394883259
H       4.190341737890988      8.284817999646558      3.765302571115540
H       2.974822881682924      8.981166060566181      4.637822648914780
C       2.849776158594067      0.221699684233788      6.890008876508807
C       4.556688249629205      1.915516145842629      6.256535602629431
C       4.334557542027909      0.449129030065632      6.634707659020870
C       5.017263909611541      1.129435351580232      8.946706166328871
C       6.709532382896222      9.198987853488898      7.726585095547901
C       5.238860860992070      9.360009256043258      8.086580754393760
C       4.867423407391802      8.924976073889841      5.638934748497013
C       4.737054174368984      8.038127183969491      8.677598006126336
N       3.990372637051479      9.048741512657722      4.427628679856883
N       5.592954173962515      0.795521209344820     10.291492081870215
