40

H       6.041870393428296      8.296601074966139      7.643142455537300
H       5.762048556821193      8.079946558041804     11.290855541208352
H       6.852911747050598      7.983284009758462     10.039292649221046
H       5.615398219007189      6.847498372201507     10.167531637790102
H       5.328342690988044      1.024369769245113      9.586634379894434
H       3.964621809221234      8.652725056180547      9.885593899032392
H       2.287823125413308      0.744621533705254      5.124777607332441
H       4.476996561985682      1.491499791227552      7.226728386227587
H       3.097450646965418      0.428509307750465      7.521274000052005
H       3.810497660633585      7.701926038164995      5.576918291283629
H       5.175416297260236      0.072603468658750      5.279342766586461
H       3.526092295446373      1.879503414997526      4.998583597749644
H       4.662491924911429      7.233740680110182      7.938244342375781
H       3.379422005342390      0.648794796894666      3.873636436460537
C       4.131891011056498      0.451376469108046      7.151178574745856
C       4.972098117015275      8.720298549330650      9.462667235085442
C       4.167590811978338      0.005637690522459      5.701617025073726
C       5.007709898209579      8.273694284299333      8.013603173763292
N       3.286122131633776      0.878889734191287      4.873475420839879
N       5.854773189357002      7.848517744503996     10.291238849483506
H       0.855898521603161      4.283797627526493      5.208227497820638
H       8.790378943136691      2.875416097028800      7.304712500092554
H       7.419521265834026      3.951455316398276      7.592051143790401
H       1.720020561801221      4.781691165540015      7.572221307548947
H       1.433153429170519      5.012441633089140     11.218518189733112
H       8.284339063034697      4.448924676565104      9.956565107676152
H       1.292935330421019      6.243964829824873     10.093523792928822
H       2.525743055092996      5.102846865110266      9.967829049273449
H       0.991139026017011      3.344029175483112      9.518683491139777
H       0.349252108095679      5.857598598801537      7.860194275036907
H       6.615126649141548      3.627417629290086      5.196175967406645
H       7.708417162767024      3.716849749602645      3.945894913231877
H       8.147962738607758      5.387823419536980      5.644659135880544
H       7.848614371496558      2.487141425274300      5.072590252373592
C       0.641969689919650      4.373491912904622      9.390374253447908
C       0.685170288502074      4.814837621332356      7.939866414373387
C       8.454568460950361      3.918261912387940      7.224761415085475
C       8.497924011910690      4.358704773398376      5.773808701073181
N       7.613107565291288      3.488638576085944      4.945961438975210
N       1.527927766037811      5.242075732965813     10.218701318843690
