64

H       3.885209597106729      3.858500760566145      8.070993641185920
H       1.605776653427071      4.675573882196506      4.797038755641617
H       7.546772310858235      6.034069045333806      5.445504816189388
H       5.160141942864741      4.936136539575610     14.007151369936274
H       6.260135220893489      4.564467846482369     12.828764763898588
H       5.003307744450849      3.515362014266408     13.126820962909790
H       4.695209884198223      6.257879839386378     12.023797289576297
H       3.358614205271842      5.194278187661751     12.512261938381871
H       5.394195119838549      4.534495682685606     10.310562213836722
H       1.817255295093106      2.762754282177729      6.607550593791718
H       4.155886005333809      3.440380263320045     10.927661571190349
H      10.212368566429957      5.403606022081810     11.601861124714873
H       2.674414836686928      3.156865880004359      9.141935106703508
H       6.543110337035074      4.694242914947214      5.177380979008008
H       8.948740279741161      5.303184337474529      9.600647786873948
H       2.295118577527372      5.266883960953296      6.990929619767294
H       8.423658260144492      2.978156526520083      9.165508501834907
H       7.822155185542695      4.996975597117694      4.160352304410466
H       7.382541130786599      4.958507449315924      7.732213437340724
H       3.704432703500686      6.020051427727677      9.361372014059528
H       7.021812055173711      3.285630680175461      7.293106825580254
H       8.628944670847941      3.288174266116311      5.496956552226258
C       8.437713254614740      4.240246797688794      6.000103378020886
C       2.997499603220885      4.097762828789071      8.671905467882159
C       7.832042781810567      4.020377089326898      7.373613149288746
C       8.895676386078089      3.557972145675933      8.367497251859630
C       9.661237671278146      4.707334827985328      9.012903718932138
C       4.386269222007646      4.499572359010536     10.749800310860900
C       3.351944715012219      5.074009654674491      9.784877334585158
C       4.367105685656757      5.215787784136934     12.087651817264494
N       5.251238812228239      4.521675114488359     13.067587351375083
N       7.522812707912046      5.039072271538921      5.140902334354575
H       3.735293375156220      1.563953856838535      5.451549497749456
H       2.476363747945509      7.406766322138284      4.905320943067138
H       4.784368726836719      0.235330945330427      0.874066530994884
H       6.012601254684550      6.728646242170655      8.894421754906165
H       3.655317696452925      7.627774186013923      3.768855786212148
H       3.805566944928534      6.347159669239055      4.839346928721404
H       5.198089866782837      0.631124853772731      5.109003345127475
H       4.668998583196736      6.626669737574595      7.026599867695503
H       3.265702181622446      7.596434501805001      7.469247056870349
H       4.586156502978303      1.753140972086241      8.126886531834048
H       5.964826013509869      1.161028314823699      7.210946084157783
H       4.966777722276989      7.660602931965752      9.967486619158217
H       7.794275913241996      6.685702464538870     10.723611034086717
H       6.599488555323934      1.810944033402958      9.907719400606597
H       7.628433548796769      0.876877878400547      8.820121832475449
H       6.790356364755370      7.684431316306241     11.760310331497756
H       9.586547070253573      0.507397664011579     10.711134345595344
H       8.610658115839003      1.858386590599084     11.261979988563942
H      10.046945526652555      0.759143337064715     13.073209902498290
H       9.061099280918285      7.000560119685012     13.123549668946950
H       8.189956623804250      2.136752459121822     13.627815872301756
H       7.097728604242037      0.901504378052654     13.469070525901470
C       5.105490933182357      0.840736478317847      7.811131959852005
C       5.736935683706828      7.752362556318831      9.189503060410264
C       6.871026997610892      0.786372452871090      9.610977262623026
C       7.555225299693676      7.727775391967598     10.974900551295757
C       8.723743133103241      0.767668417380619     11.336765407622675
C       9.139391667393276      8.076579229767416     12.936395127014691
C       4.288250949215704      7.657244710083857      7.071271664672294
C       4.179294695485756      0.566158525716532      5.503501204998454
N       3.502844477633323      7.336203221432354      4.742492445763349
N       8.085118728940449      1.103086424796814     13.693897143071252
