48

H       6.459803807884509      5.455143391386679      5.782315101572778
H       1.908132943041955      3.396505039375709      7.931498856799532
H       1.123893340548612      5.132476725627116      3.778909270510905
H       7.131488804023960      6.339336994046061      3.072591825067776
H       5.980417929123903      5.114840928859521      3.351789723853495
H       6.488197992690110      3.128892873225016      4.595683624328521
H       0.111448632277984      2.920056337138313      3.365847973130946
H       0.317579181211965      1.866315746868706      5.611308757326649
H       1.637495743570725      3.019219566384882      5.316078387255134
H       7.218927716950719      4.862408952967988      2.267985786098305
H       0.754630938247076      2.163526475680288      8.050349174413119
H       0.506645336659960      3.649343969480825      8.806283532397156
H       6.874068396499104      3.443381832885320      7.156544651596840
H       0.310801892417038      5.775075956138028      7.444658599426484
H       1.635390151630792      5.285076528338345      6.376257651582305
H       7.753871776479287      6.622634148824519      5.436199867231617
C       0.188921563757806      3.729231744096695      6.734093785012575
C       7.534933646341096      5.554600509744861      5.567564394247039
C       0.078546095700048      4.968882670001793      4.083694168305131
C       7.573930302387969      3.285546364953422      4.473849113773415
C       0.553005762540848      2.931567140963491      5.486294983690793
C       0.548845283478631      5.194904257130455      6.544742705702223
N       6.991722339872387      5.309918907906799      3.174873422661547
N       0.883659803198046      3.195994547305963      7.952662975717340
H       5.951726587589039      7.711484243603290      8.068231968625387
H       4.640188908501268      7.863862825423593      9.109301330069266
H       4.860226060967502      6.424288012998032      8.288210653601645
H       3.059232241201416      7.724092037436624      7.339210215270792
H       3.964710003473230      7.128683672612051      3.699707901068187
H       4.333678172543857      6.115579322137660      5.927590297779399
H       5.553285008605009      7.370776492676778      5.596342004933740
H       2.356630589512431      0.711030199831610      3.386660514357818
H       3.874077276210750      2.294699549790762      5.678378151634926
H       3.487206787279389      1.961533762851085      3.225345860654182
H       3.744024360441553      0.464893306087081      2.489382108901604
H       5.179161371161663      0.606863145853139      4.345773784677784
H       2.614640346269776      1.071030645770440      5.967413886620444
H       4.107067361894860      1.256549436638006      7.931086420063878
H       5.529293495975663      0.943878964224730      6.931864107662965
H       2.602825283952711      7.520733716235015      4.761528547163201
C       3.681378078028079      7.689279115778882      4.599890407870335
C       4.110094837228216      0.442653651977813      4.559264509751324
C       3.693961246004720      1.218824440194608      5.804665019663674
C       4.453635371333464      0.720266941534922      7.036993041286412
C       4.101306548810629      7.949675085352963      7.064177831212749
C       4.484323458663503      7.195188078040227      5.796177165275009
N       3.379037254020567      0.928434179284104      3.342583948050502
N       4.945385473986489      7.460560759566332      8.206323564902108
