76

H       0.982804545502664      5.178023885243708      9.254077405498597
H       8.314037212413412      2.817110158382370      5.471852884010160
H       1.390753240415453      6.103276490632205      5.792872350196144
H       2.512847862117526      3.979268357992307      5.521184136368376
H       1.388735478734699      6.082824728885114      7.552939834456184
H       2.680340924391792      3.684737484440292      7.242883212068032
H       7.306835223365896      4.239763101149654      5.765621378868539
H       1.884096863490894      2.478131247562810      6.210996968069801
H       0.891290998327263      3.876911413360666     12.563369581384466
H       2.222104147219603      3.940815932538966     11.529721196518233
H       8.486274113702221      6.323158960540526      6.835864048084740
H       8.629900971064069      5.594729271271305      4.207429524184970
H       8.392241060335516      4.259693836079109      2.227274232145608
H       8.211016608054138      2.856210718633006      3.121036745377007
H       0.453055440558340      2.503780714978688     10.658460494205652
H       1.252603249915357      4.289295510545097      3.900380625238973
H       1.138398957553664      5.235803032094961     11.603305075343901
H       7.022710786377882      4.054256959000656      3.199086984358802
H       7.961120346590520      3.933352234936050     10.916150794830724
H       7.895606656125857      1.881611610319955      7.232462979202145
H       1.905777396483239      3.680184025866085      9.053774667721207
H       0.766992336694112      1.654674724489873      8.016018975154827
H       7.830176179863157      1.881804660539588      8.993565758038336
H       7.310424108765019      5.485625788686374      8.523100433959167
H       6.550159267695085      4.217391969625240      7.535990529551054
H       6.717246748293906      3.989508540560198      9.262175180866119
C       0.892324656223861      4.083611471334700      9.194599466134386
C       0.382375100741298      3.593071485689563     10.545397494692509
C       0.639079912645744      4.230061467043781      6.633572602998150
C       8.341056701470794      3.910755225233284      5.591119707562020
C       0.190045280848820      4.474973268517872      4.102516147851818
C       8.597748199392059      3.746518966937133      8.157513846895396
C       1.999574362494950      3.554150367619258      6.394160009373288
C       7.224864895079926      4.400194923693803      8.379736369943590
C       0.829999599009590      5.756422821724533      6.671672945491459
C       8.421241778013698      2.218506038727799      8.132013799754150
N       1.213327449520630      4.198840838159721     11.637350213761382
N       8.052748423483891      3.887982228015106      3.133492454252864
H       6.411671242547704      7.672273261766976      8.700393162794841
H       4.212110105552848      1.379258691142021      3.773115692752619
H       4.030731895456457      6.596718033650714      5.176847940048620
H       5.758753862130144      2.019584323121480      5.482316455404237
H       2.312954102068832      0.360432509327471      7.298629530985111
H       3.207959128972866      1.589792824465037      8.219263251015111
H       3.605951589254190      5.876719814308868      8.720003468058431
H       5.071416340960656      5.580451241847716      7.785164283595047
H       3.531552067977222      5.841827859821549      6.963387452942994
H       2.538262621041769      7.726476595352969      3.020837052780424
H       3.746751271017687      7.838162137784709      1.873976119365753
H       3.701591758742524      6.496793159650531      2.879544068010202
H       4.203529976206781      2.276041162964371      6.269581722482501
H       5.673322051435036      2.118222176291669      7.241303444194896
H       7.108426295555717      7.744441063660537      6.866090986074491
H       6.786868421400170      7.733253890829533      5.148011685753032
H       2.972419707162752      0.120822269104983      5.488133054858065
H       5.558218382413427      7.689511375223992     12.287949467842408
H       6.279796015455382      6.350943976835065      6.132156834493546
H       5.525467948021360      1.210522180706048     11.452216451493056
H       5.170146438762275      6.372068298413077     10.354860249437955
H       3.938357597669104      7.636972045877174     10.524730420679127
H       5.400599581411234      1.212968471362364      9.072959041600617
H       5.403654928433241      0.064897694453343      3.603983764092590
H       6.764101030393320      0.068943581586786     11.275766628900296
H       2.564760444834361      0.151556781380069      9.020054235969784
C       6.365223639970653      7.445200518843794      6.118897517868791
C       5.153603492512942      1.739143076533411      6.355045738350923
C       4.369125026440563      0.298524747370271      3.886377641304446
C       4.958487331809329      0.213398005651162      6.414640367094634
C       4.052699374792539      7.695746390658863      5.231048910433326
C       5.342862189286554      0.118374241934573      8.971514456051896
C       3.044052904330437      0.511382838876195      8.101398167351661
C       4.412820021434219      7.678343991802328      7.778875985169112
C       4.146131431531234      6.163130818828568      7.807100567671799
C       4.992002534442821      7.452451253383136     10.281278612826785
N       3.548798777175730      7.524243582330820      2.839962197095989
N       5.734902984089963      0.191168255227517     11.411727007217431
