32

H       5.596962576096748     -0.609972889711333     16.679077608154472
H       5.706283793914166      6.321143957441318     17.573199741738968
H       7.016152960188608      7.540974464187014     17.495253453403052
H       5.515774529714119     -0.328338244559572     19.646756872086922
H       4.186091272297216     -0.226727653543526     18.617206888676989
H       5.380255643262930      0.942148423244874     18.546217212231461
C       5.939787264897284      7.374642754548180     17.392197744957613
N       5.215961726429355     -0.074717158113665     18.687314661344576
H       6.531363133401498      0.089651543754338     24.984695611104332
H       5.620053807758530      1.354314592792994     24.100144145505951
H       5.022205164154236      6.693804589215986     23.755393678640825
H       4.147851975404277     -0.364690700060202     24.827547609905071
H       4.229768550942580     -0.368114438248552     23.162862755949924
H       6.569708728373700      0.135710607453404     23.188445318371333
C       5.964425041402718      0.315464111531995     24.079680320346164
N       4.772117219726262     -0.570621932940361     24.027220379550318
H       1.509301007935769      1.993570505556137     17.285451795262773
H       1.473881715621260      4.226722301947668     16.431451107599987
H       1.338722254897835      4.845416127966061     18.112330113558833
H       1.288826269162831      2.504130968164656     18.856557179920188
H       2.731129247440881      2.876010014947864     18.039196161537628
H       7.970849003260572      3.890707040056244     17.820016330115784
C       9.055444695589348      4.025628211523638     17.869703467758725
N       1.699062823087877      2.775205891191597     17.938974946775140
H       9.465413893054773      4.866714994881543     24.521117763065526
H       9.407471734060278      3.665246434894254     25.696371878795745
H       2.713787753493802      3.743713529122549     24.173127086508455
H       9.209597691438782      3.188493024467270     22.761941672661749
H       7.830889490701210      3.173553077145020     23.910110769320323
H       9.119735573814760      1.928485006290059     24.036251600857327
C       8.899023045262615      2.971075470471177     23.786018879094510
N       1.685536558976725      3.861169271747731     24.274073890490623
