72

H      -0.033101514553502      4.297805083343881      8.694471043489605
H       1.148017199972194      2.803660109435683      7.478428213509265
H       0.902426832320528      4.218077510314846      1.948602932696743
H       2.528140652524681      4.066807896770161      2.344139043433134
H       7.687588910768928      5.191768157505411      3.183834953687867
H       1.768263473641565      6.184477940578993      3.008932535193847
H       1.359836129812506      3.222592429551070      3.196480855206044
H       0.098533245490098      6.646019740042434      4.481897394240508
H       0.977169406005529      5.189685279616959      6.330363758216720
H       0.868346068521415      2.957100258005224      5.149911947687033
H       2.360305452211114      5.201289865703264      4.358666317531430
H       6.399248216893101      5.660767166166633      5.201724064455142
H       5.917815487412039      4.915017179199620      7.670114165031695
H       5.849064847904566      3.699085791278414      6.399748807306534
H       7.446108350066011      3.002703113105281      4.658898617449692
H       7.417183033295685      6.314299639454558      6.488717914979873
H      -0.223774272585444      1.755937555513463      7.128871851930971
H       6.371057989315769      1.856203939462747      8.188536657387619
H       5.464166433078781      3.782508920737018      9.562830469715175
H       5.900379207833684      2.345429331991379     10.498931557123869
H       7.522223584670622      4.822649493609967     10.267691389797763
H      -0.438941798018383      1.996067527273606      9.613925960033496
H       6.638422771148536      4.320547825074453     11.573161499778639
H      -0.348842591644822      3.468673729786523     11.660018710435761
C       0.103074544866847      2.808069432132626      7.145370601401974
C       0.033671304246488      3.380594797110043      5.726839151330092
C       0.076077813899739      4.905245972566902      5.755582374997792
C       7.156062814364756      5.386984340503213      5.951945246389141
C       6.534042452321220      4.376452338338856      6.936782242985022
C       7.059450300445388      2.560519627233641      8.684044994068319
C       0.202134189898655      5.554290686424337      4.371420793893688
C       7.605269891554197      3.543909103350594      7.639964539034313
C       1.528722975963207      5.329253073548372      3.653497779770984
C       6.303390514964184      3.144838423542120      9.863921248207630
N       7.181073392494948      3.975020322422114     10.748825313852473
N       1.570509631488415      4.136348858581955      2.742085947054814
H       1.701802826792385      6.272071649346575      7.910616095758324
H       3.167726382268766      5.896600428994703      8.803106458677640
H       2.888564787264079      2.218085015354820      5.952360231174135
H       4.031574628813122      0.412597806159130      2.026272555495378
H       5.426506842280076      7.946872526480036      1.214322054564357
H       1.796951047254504      0.184719511636360      6.663006960715407
H       2.729617567180495     -0.126325314370514     11.907950885870044
H       3.887112302163890      7.677396921690752     10.452938393015069
H       3.079026280469806      0.891811109887397     10.639915367346148
H       1.451489506523090      6.636350160460665     10.340564583359502
H       1.203578001084365     -0.085011582053989      9.826144824873976
H       2.065677517377846      1.133158384101906      8.125678952764581
H       5.076163950837357      2.606188347637454      4.576842921642784
H       4.210831452599528     -0.118566860278036      8.508346622863069
H       3.419527770186658      5.881012673528745      6.263570008107680
H       4.983299444237471      6.521876430252565      6.737810066786491
H       3.111558694478512      7.550011185904501      4.550544932718410
H       4.804199790440064      7.047949201969277      4.454052431554803
H       5.520339192369773      0.820544472860743      6.177621780423736
H       3.701985421447529      1.754802234272932      3.907132226067392
H       4.018766472831730      2.189589478012369      7.299415501006711
H       5.959792470403054      1.791921741032695      2.604950723451507
H       6.497991147977023      0.504973533380002      3.697484700190627
H       4.605223252642203      7.336498837350113      2.522420801978381
C       4.698619496932540      1.597854211008972      4.353257219577952
C       5.610419250467211      1.004422676428866      3.286089341051312
C       2.581498910608829      0.579886841957737      7.331625788060403
C       4.539046837805369      0.821835422353886      5.666632823036663
C       3.501657346915217      1.544776524717701      6.571592179435708
C       3.979987644712357      6.818965123672259      6.413967615659053
C       3.329926136835312      7.647493813463381      7.540839292342087
C       2.531220292145283      6.733485257800468      8.471036641522074
C       1.913555302106328      7.389077975338700      9.692722715525933
C       4.075009757975330      7.576343490928380      5.085748564378192
N       3.000506440704566     -0.115097054220523     10.911923216908230
N       4.898957852452155      0.005343154830263      2.417883324323571
