70

H       7.899348219545448      1.740514263221620      8.007978834739045
H       6.519763186583829      4.352344823270784      3.685932808397156
H       1.217509046642006      4.605500379507636      4.901303444987644
H       8.023427779814819      5.573555431805175      5.260240262231790
H       7.514071293270630      3.655637919080815     12.131388321445860
H       7.914712431064735      2.537153202418620      5.744331353284498
H       7.784604979982846      3.128444941460309      3.412908794297739
H       0.482734095372934      2.588173275019910     12.643838651466311
H       6.996108392992759      2.196566253532416     12.829154592354502
H       7.764417923662982      0.940300052181350     10.941432353990812
H       6.761057428039668      3.740760526259752      6.330440684468065
H       7.812104507786845      4.701284189702168      1.657024163705725
H       7.979730857750256      6.029194885771655      2.693094995311365
H       6.544608401782603      2.171245571911601     10.527290436696747
H       1.386727817551304      2.306645025027202      9.895822875742848
H       2.458059630782670      4.026628864821547      6.497338254499622
H       0.878150874488319      5.968690062874763      7.248360676002047
H       7.539530603199965      5.454412654370895      8.122152427023549
H       2.007501650105358      2.358005046596379      6.904457504564901
H       2.527449718371545      3.485027433905587      8.180095000263005
H       0.986052762449286      5.395845169621930      8.913056676578782
H       6.900919716678572      3.092036835968400      8.541706422410396
H       1.075614390538357      5.033458321231834      2.582685516905356
H       0.600515769993209      3.842019991691529     10.238765124719615
C       0.492772267440154      3.825333727343889      7.466544309558451
C       7.605728763724781      4.179921277725692      3.679520188481570
C       7.830596590754263      3.575646395484933      6.110322584423320
C       7.589570425061811      2.018290108260132     10.825248667764212
C       7.945826764230088      2.754941215786086      8.441513146547397
C       1.951431406326618      3.402265025554190      7.247462454509499
C       0.413653992236254      2.817603664210952      9.884473731979146
C       0.125532273693365      4.658420327166563      5.038300767342479
C       0.436268629390046      5.272109464063493      7.972901668273052
N       0.044112364294383      5.136880931920074      2.617273375726698
N       7.690964685637060      2.629442124972174     12.188100692405557
H       2.598430498155930     -0.486258766552308      8.751067548684839
H       6.266515692503678      7.252311199318110      7.832618383291353
H       3.804822290496602      7.426022772015315      3.006713758207599
H       5.359499264726137      0.447167458375168      5.206837024608376
H       4.069193261743755      1.634307498594666      5.427193296428816
H       4.322098634085013      2.100706617657075      3.007114142348213
H       5.336010038629820      1.191970765669790      9.000285141751148
H       3.816667236546660      1.723667827799560      8.279547890695865
H       5.311951045931296      1.713990617082526      7.316354802480111
H       5.483201032629118      6.147125343347762      6.677280966345496
H       6.268703907310937      7.638394067619232      6.110897283262408
H       5.508739097874503      0.883690509485958      2.890759369042450
H       4.766626655670911      5.873233327990074     11.816238726330750
H       3.292075759522490      6.221610346705365      7.854871202955184
H       5.066440473344050      6.844909424284382      9.588396620900287
H       4.243620457540841      0.055929296718378     10.534089034822363
H       2.197994707435268      6.879203785896228     10.697126460538511
H       3.073076545521716      5.404445641611245     10.195798861426166
H       3.252653832395198      5.811262139841842     12.555837508959417
H       4.134019582002018     -0.952991994062966     12.853162314044429
H       4.167645316232828      0.903499253193608      1.859986727835625
H       3.478857623725468      6.884959862713788      5.416876730323978
H       2.618447479268600      0.015958041086634      6.507267529804523
H       2.676324586341797      0.452555232459691      3.708449282749447
C       3.657851191988389     -0.304023230161499      6.320358137603323
C       4.741796252721644      1.169948248588074      8.080047696343851
C       4.453048112657824     -0.273464423064812      7.653235523311468
C       5.659032959283842      7.207132841956792      6.918602954360587
C       3.467034500120596      7.262908133269618      8.174470342113885
C       4.047789205025086      7.262037677468203      9.591318789088536
C       3.192138654806203      6.439453330621612     10.541662961555248
C       3.748721377484452      0.242250548665311      3.827338089674539
C       4.264560562039724      0.570075132490500      5.219248010913902
N       3.842986971122183      6.345904084562000     11.887876452817080
N       4.487984832689652      1.083222979167817      2.830278876257766
