16

H       3.530047808985560      5.364444989690201     16.950000024581705
H       3.824584275026133      0.121768025338949     17.443567716409895
H       3.736425931767813     -0.950683570150075     16.006675388934763
H       3.704548033938489      6.344208018952370     18.279490252999942
H       2.308759796380091      6.451242751716527     17.344107534242863
H       5.185079897079421     -0.991379095407177     17.058373166225568
C       4.099971908156474     -0.855154618155609     17.033740378869407
N       3.343334104653614      6.321432336695379     17.307946357819567
H       8.030054372793176      2.486725234432963     15.659523871163906
H       6.557717548553137      2.362622037695434     16.669572749118817
H       1.111399268214570      3.381526147715560     17.651857468863771
H       7.867931017946558      3.154604907416427     18.558021723840593
H       7.958523806536528      4.285915327550908     17.318482835939413
H       7.967207711760746      1.301564463288085     17.010466499365947
C       7.648620623537348      2.291086891424036     16.665399163326484
N       0.067509201879338      3.441182932028826     17.629759940159300
