88

H       5.099847334250137      1.188676564104512      6.435378881907057
H       4.979570897727750      0.185671649802509      3.018296603087660
H       1.619631425103875      7.898848143908376      8.540136365194938
H       4.059671223433702      6.014597051717731     10.691879826888766
H       2.683655028635330      6.393333780643064      9.661001127861594
H       6.121882748311250      8.149716835991756      9.283753857893252
H       5.927978835649976      7.544480811715757     10.926773549020650
H       5.815456524918844      0.633706343400565     10.686264234187936
H       4.284182479277946      6.154038402134363      8.955950390618883
H       3.578107704412729      7.856490558940433      4.546568092737786
H       4.912386380362052      8.350212142397565     12.648326722722445
H       3.214288004249906      1.059905581570386     13.906692190093009
H       2.076735233706076      8.295338180796156     13.805411871539633
H       3.652058330757806      7.044290969944082     15.069542631348940
H       3.416258856195714     -0.134129680583654     15.941112552414452
H       4.796035201012958      8.251103135074343     15.007577616055865
H       5.199211495521510      1.763846167330964      8.759614241509469
H       3.834642832304451      2.167542165212241      9.804570348584720
H       3.674076227685149      2.301729304082894      8.060844219625842
H       1.630787557069102      0.798973466537062      9.502745882821202
H       1.791601297626799      0.781044039811083      7.745953736637054
H       5.112784328206679      7.763652460101931      7.597685563044579
H       3.466385466873722      7.347071381858873      7.165826212265880
H       3.369893644625813      1.072240056750231      6.148040221872967
H       3.832260056809188      6.963060179184896     12.596866815612795
H       2.228622367259252      8.262814117229507     11.177324743580378
H       3.330007412454474      1.031752724895366     11.355141759560777
H       5.242962672658191      7.541561203227393      5.062901775413730
H       4.569131243115642      1.519927946759127      3.962312867189026
H       6.064070347122949      0.795550860354023      4.114292551320128
C       4.489414317706294      8.323862640170061      4.931358757443634
C       4.279543421012549      0.475111357260157      6.286605223541571
C       4.119760505661550      8.193397578297832      7.417305398658074
C       4.115013694569126      1.695933532530469      8.858796585910374
C       3.619162475637038      0.243192814477356      8.783275704530254
C       3.172939322850257     -0.032825019743298     13.851967428245294
C       3.860932656269623      8.059084647195828     12.558699542132738
C       3.325562997094768     -0.065392903211385     11.326107112412322
C       2.091743153920390      0.269805577066126      8.666718976711850
C       4.038331146872876      8.075599525020031      9.982712048095575
C       3.749445783658331      6.578208143833784      9.806130444778255
C       5.546955519132061      8.273449783904054     10.206201185519090
N       5.055960201069881      0.608101133562931      3.953896543906409
N       3.777124706079404      8.074338721100517     15.009848574184399
H      -0.766931309850577      5.545382919164032     15.469571044165971
H       7.680294492376297      4.077359362435518     15.983247712316416
H       0.486437615452532      4.458992037527882     15.516015900038674
H       7.791335734896180      2.775803322884014     13.969102179647436
H       6.463132504263396      3.954504686133742     13.911578546674082
H       7.800722449798808      6.469425863135331     10.454848944667189
H      -0.649566495939030      5.610887029584891     13.090461636288079
H       7.782143073889617      2.839148578638014     11.413816948214651
H       6.680890575728562      4.201666798533395     11.227762782555956
H       1.878440190068801      4.143887339413828     11.502611119317363
H       1.261056933207753      2.716426377270872     10.670078041392815
H       6.429823795705985      5.684233654780202      8.991137851955305
H       0.584506276605201      6.418627118927967      9.740736162169558
H       7.173885794771232      2.269111480195639      7.792242031234728
H      -0.003091773862396      4.609656566393690      3.328504408895978
H      -0.224106449587194      5.795375318056492      7.890779800436321
H       1.107374918351605      4.663003394366106      8.096539284159817
H       7.205120525358650      3.937081975464438      6.182191273992310
H       0.660247910759723      4.442093168780646     13.148353256277549
H       0.784783118651031      6.239462944502395     11.476374408362433
H       1.982186270712963      4.044314570695830      9.754637976957769
H       7.417816286080630      2.055350365588692      9.521315561280499
H       6.020350962279408      4.497081010524749      7.751423767790658
H       5.775989094029623      4.103256109927557      9.441304837492989
H       0.081026495121514      3.056493648604706      6.577030924847341
H      -0.137958099908715      3.166035652238169      4.179593387888254
H       7.212849647248353      4.200356600594364      3.828033840153443
H       0.183256096539866      2.149182414879248      8.774296173433870
H       1.257923226036719      4.835735672405433      5.324973939322487
H      -0.179371056935265      5.876269906124587      5.395631926776415
C       6.448711307356648      4.618329753707610      8.752116619465209
C       7.822059367889842      2.542004827644964      8.630308998482214
C       0.166747298450822      4.837692552622874      5.413971203357635
C       7.879566999260962      4.066704677876475      8.800728436528624
C      -0.329249293240740      4.070418947451692      6.621135592732488
C       0.022128413696257      4.726744650560890      7.948470793677305
C       0.130755319939169      5.991331862594631     10.635308715995235
C       7.552107746550227      3.841505668273198     13.894309688727283
C       1.344749816219852      3.805282964139435     10.609360118991521
C       7.734481647997126      3.934854266284599     11.367354157632432
C      -0.425297781964680      4.539933825335784     13.044751932999011
C      -0.040838175188869      4.468278168201572     10.514558865374504
N      -0.543032371078188      4.532286293268684     15.476341805754215
N       8.245523801843950      4.142367308913731      3.841319909883921
