32

H       6.133547399701045      4.598356676341152     20.852402816524776
H       0.467125772845378      5.296624139230810     21.050640208438697
H       7.853067475529961      6.007073004589229     21.760901354064632
H       7.447594313369564      3.624904098922178     21.590511485632522
H       7.812765513871632      6.178443580166862     20.098639559676062
H       7.366730253791649      3.812513408840949     19.806544211881047
C       7.182570384510688      4.296449650981630     20.769539916168206
N      -0.549562077954486      5.519066372069670     21.101972866288971
H       1.901250819261054      0.836376403393959     20.891305405868604
H       4.802797102648764      8.901458971267862     20.963426675908647
H       3.127397522835626      1.574838033710664     19.805766217347330
H       3.604448587448220      8.222264594696799     21.940109399540660
H       3.535757872457198      8.027796612552898     20.281972938941617
H       3.248860514830956      1.799528396224413     21.584148483615405
C       2.954107528648580      1.116328176037346     20.783121007926216
N       3.783326477200905      8.696864730770843     21.033370178869458
H       5.100652269046642      8.975170899066196     27.134335394943733
H       2.177914322646658      0.832010845431097     27.047852805134649
H       3.894965108370663      8.234293639819663     28.240111535460944
H       3.347480990051525      1.494766154655361     26.026424196146710
H       3.782091347755961      7.951820655505062     26.471266443049402
H       3.425442479082194      1.774801680397488     27.666657902255363
C       4.056282931907902      8.668505048581080     27.250066213086054
N       3.191493935481895      1.058761728172373     26.956779549800697
H       6.485957390172771      4.430819897680166     27.000662739847581
H       0.817798999344512      5.142616513755679     27.210697055214631
H      -0.507719270708978      6.154177675517417     26.543960275660183
H       7.738374892255898      3.502987314355143     27.631387975367812
H       7.676686037041306      3.786528896735113     25.989695750160998
H      -0.404670329522674      5.859131162062877     28.311673890412056
C      -0.231580046297192      5.434649013411616     27.319404021874941
N       7.503366312571253      4.217210452362232     26.919946302424371
