48

H       4.994937393839447      8.033419195061642     12.793227204736775
H       3.105396098527063      8.643510456594280     11.453860020885656
H       4.850687469066640      6.982671035706077     11.501973737079826
H       3.047078298452252      7.102916943952834      6.957823973771083
H       2.743212104035448      7.307893462105990      9.404597878378910
H       6.044583277528430      8.168473804444629     11.500823557891206
H       3.966712241619188      1.759205266946355      4.986938116135719
H       3.821402019479378      0.709253329147160      3.695111847493020
H       5.711173036583099      0.097583684549564      5.033743181930357
H       4.464806949107598      7.546382369668420      4.987638624694142
H       6.073700093173161      1.432920696355590      7.083183678382611
H       5.769835150606107      1.638111983826257      9.530081959040402
H       2.772128482508383      0.574220503595769      4.987954489367183
H       4.351103712278333      1.195221998030088     11.499715161092180
C       5.174852545837678      0.923694141424590      8.966666244402507
C       3.474688584723596      7.929294482900507      8.895127241604657
C       3.641952842207711      7.817063488590027      7.520991312484710
C       4.709951574400540      8.540288470112442      5.370562056174619
C       5.342130250635780      0.811391665845561      7.592501091606932
C       4.241407269481693      0.121487717307100      9.627300130096843
C       4.106570489433119      0.200954143699484     11.117300656837463
C       4.575266828867579      8.619316934162219      6.860481025391364
N       3.753612486570535      0.778822432935327      4.720751881705880
N       5.063085598181131      7.963389711105354     11.767649977961241
H       1.380178771594491      4.326104340743728      5.043479849723631
H       0.121810207272340      5.585731612963456      5.012252050131329
H       7.097427917271859      3.826821415352079      4.968837336584759
H       7.059400978518361      5.773821812985494      9.405836212286609
H       0.668182728807901      5.048593655592927     12.811526238236929
H       0.518942167484012      6.101777463612222     11.522467790473561
H       7.436797013341814      4.425293385040688     11.443700323911729
H       0.042333746609779      3.165372642352993     11.503936084451254
H       1.719679768059324      4.923178811519234     11.519596782211016
H       7.358147331846763      6.003238761276987      6.960538535562968
H       8.298765205335975      2.648892088811173      4.966296030769660
H       8.148608711833250      3.701168071184648      3.676493726491038
H       1.758033702746803      2.978108109007629      7.081520136621730
H       1.459304487216445      2.748589035272452      9.526857193414331
C       1.021954358283697      3.588713755986970      7.597350379955667
C       0.377183066066334      4.591629922071645      5.387674387057497
C       0.246573784338296      4.500570308939763      6.877315210444370
C       7.959926103139781      5.289208210689827      7.516689858875758
C       7.795474064332535      5.163257313080982      8.889953691217636
C       0.857490030941401      3.462736347198563      8.970635430927960
C       8.439887244496401      4.159716420215862     11.099551480154684
C       8.570741940550640      4.251315799262458      9.610016958264154
N       8.080417806139469      3.628590943305394      4.701948306752299
N       0.736815774640358      5.121901982934126     11.786201754467033
