32

H       3.835281267320573      7.013424643386611     19.603733237925365
H       3.920935252671739      0.561526568392340     18.597407554740485
H       2.720289589095263      0.422010907683613     19.751105815242315
H       5.650875903507725      0.639007284935515     20.251082399683490
H       4.466909295099701      1.956220226243198     20.483595558899300
H       4.587087666583161      0.194348344890026      0.543270092406309
C       4.623334879324370      0.878107071186509     20.528220182897197
N       3.720931926523112      8.043111923190503     19.585897598133052
H       3.918020913400302      7.513429846717636     13.413418625885457
H       3.329869679535555      1.632115922525458     15.531144755448276
H       2.195937934231367      1.004294890712291     14.299348798225418
H       5.098078870175988      0.324987538162959     14.379590731957546
H       3.864169343809954      7.204441041232426     15.043853548149977
H       3.541426267636323      2.077220338431101     13.809718345356655
C       3.226662010192010      1.298617036841813     14.499889028913802
N       4.096077968263289      7.923365266480545     14.341425040857120
H       0.348125592296405      4.265389872730268     15.922655847450894
H       0.050396491709800      5.798396740303480     14.077102929138599
H       6.657422970577375      4.661766933284369     13.917240086461613
H       1.700137705846100      4.112052885674607     14.763227806862291
H       0.373511236071915      2.911900414622095     14.747651436753916
H       0.148609619836853      4.535688574130082     12.975518590968683
C       0.631632743657892      3.957934185406632     14.918358731111736
N      -0.115917524864532      4.788061754848626     13.938038518919273
H       0.411423495921360      2.674203404349898      0.149591603882044
H       1.169435918674575      5.132278561384931     20.608607603078045
H       0.189224159297306      5.282157927452920     19.258900218380578
H       1.337929069647025      4.079481428510237     19.304356192477112
H       6.968024211605796      3.961976297899491     -0.022593368032018
H       6.952589165150808      3.157745641959194     19.575764092316003
C       7.477740379770404      3.689891243977587     20.370453932792280
N       0.663836050514999      4.610135981765965     19.880040691237514
