34

H       4.135143668987796      1.347455789194514      4.305835137652473
H       3.854791002911816      7.053722921517150      8.505444228069813
H       2.959001248439240      0.175332821118006      4.339610769917327
H       5.106034034742923      0.499072986498853      8.478534744619859
H       4.487798302521014      7.627778947861946      3.738865691110151
H       3.397285202569995      2.121973409056435      9.061436658182949
H       4.257440610932264      6.640970790033970      5.908218177107185
H       3.849462855442899      1.761730519113322      6.704790119443585
H       5.519430097242549      7.894561671794011      5.888407400431056
H       3.465113104511524      0.887532767638180     10.185291134414403
H       2.218640703084510      0.937115233213250      9.062407113164790
H       2.591946867617498      0.520519461242947      6.705129850566879
C       3.667202041620089      0.689086498899402      6.848746742868761
C       4.052676874453384      0.295286184624700      8.262266119295353
C       4.439805794054974      7.718366384380681      5.834243119006377
N       3.978554225752025      0.335651683450695      4.444449750985531
N       3.234560608916117      1.105557505080352      9.207931523996445
H       0.064229574835222      3.169748510255044      9.059948650250517
H       0.531179453840013      3.450591948732927      3.206176238951689
H       1.791314722972701      3.447176180678638      4.299843389604591
H       6.721499246424990      3.865484765262068      4.843916952366062
H       0.623073271245040      2.251749042426546      4.356981938804759
H       0.328566155330166      2.730073924957114      6.727517127078727
H       1.525653143680586      4.024374627645216      6.603293431240342
H       6.422245791504244      4.398739061670563      7.430736242623711
H       7.659422031501008      5.675494069437724      7.350826678891990
H       7.527700306290756      4.701510760977048      9.560501492039867
H       1.227549831567882      4.344642048413513      8.990031723115271
H       0.144068624579907      5.148790028528269      4.840017144503089
C       7.499025645646871      4.597035459860463      7.451225519247772
C       0.453771339430371      3.801767493768792      6.524045903055216
C      -0.020184520172689      4.103363420451872      5.116721770161091
N       0.204730432585592      4.186144694449830      8.918887338664726
N       0.773482825498831      3.262392299619985      4.183422355543537
