88

H       3.921724382043644      5.326839705416352     14.473020244113766
H       1.088087335692547      5.672180216250903      7.358808818119579
H       1.591768183068520      4.002631183818007      7.202868651213128
H       7.871675010738688      3.425245808390862      7.362350303766686
H       7.647000054473470      5.169261633563009      7.195015144952175
H       1.002240660303313      3.523297374422913      5.041424336799947
H       0.741695195662314      5.258620678074193      4.788874723942302
H       8.437685398650649      2.379964721781569      9.057619319962834
H       8.503651023756202      3.701431653512974      3.857655607996234
H       7.433276321169236      3.176695884135070      5.003124547423639
H       9.839337835991206      4.554040570676919     14.787077574925734
H       2.478045383830436      3.527811424854467     13.831555689876790
H       3.322900506801079      5.089058172650708     12.062181703278073
H       7.397516659790668      4.766117785711849      4.510510458886164
H       8.576107836789490      2.559296863978624     10.805601545518684
H       6.994628940651050      4.392612070033230      9.453185233206128
H       7.552522049146909      4.891095826342718     11.046758012891033
H       1.253436076390289      2.354051241180606      9.108283519499134
H       1.970316316847874      6.172270908692219     12.373543649055669
H       2.767012973139078      5.115310429163237     15.654412537522008
H       2.636071920720943      6.396412092225073     14.587764400506432
H       7.724647587701720      5.980004285836090      9.662685334005040
H       1.704297280256640      3.319870251670854     11.293692573844774
H       9.308316511827377      6.751001826539821     11.317149003173718
H       2.273181865704831      6.942318907818438     10.358593666707717
H       1.193081622178404      6.937946897496905      8.972771599862488
H       2.997367225791265      3.580476522862585      9.049343815663731
H       3.132377148548292      5.222533490519246      8.422052818592492
H       3.683268255580367      4.857047996263537     10.049759786083690
H       9.134924667641258      4.376310282252929     12.354840920826732
C       8.396953475507726      4.368913783296049      7.163946693664098
C       9.153414405898964      4.328789383059414      9.661556216802579
C       9.027639341442752      4.291998424971568      5.790026344321799
C       2.108279708149992      4.553315921061558     13.736049262415085
C       2.260277206026764      5.115980007856812     12.337734542841135
C       1.408980317371583      4.376763375087348     11.309316718282844
C       2.903866325257436      4.635923373992008      9.315798788061480
C       1.512636967455743      4.964593329224019      9.879186470946628
C       1.365914117689391      6.489765762529371      9.955901868855300
C       9.049076375893643      2.813926407540659      9.851458087441918
C       7.785226465312593      4.938540713490043      9.977902324775526
C       0.740990245328111      4.637234516393226      7.477382532935315
N       8.022188769735831      3.972722018888540      4.728533552885922
N       2.905965474213294      5.402352598019907     14.676831131361245
H       5.300975996866361      6.606509644126754      9.689883475421011
H       5.807941903313501      6.688892879771489     11.365507043432268
H       4.197357960121828      7.239907046186475     10.922907514915471
H       7.299640442043031      8.118791326561333      8.866373646629542
H       7.810475792635062      7.888960023400894     10.532755624450704
H       7.717323592431479      0.613218290717285      9.797696908143326
H       2.643077512275896      0.710371303788324      4.578550981514399
H       6.853977164537289      7.742562120273795     12.657506707300968
H       3.237969173317812      8.377209695336376      3.705752627460903
H       8.323171032071293      8.566996926829628     14.910529831932630
H       3.002993098285642      7.629761396537122      5.951774725879718
H       4.972089978922175      1.020396514293094      6.418632000029787
H       3.301511195992673      0.968480621417710      6.969027171524464
H       4.706633984912806      7.633865340285583      5.452503498582997
H       5.930463835644143      1.549489779974023     11.525847590103432
H       5.557638537134770      7.947028947621250      7.824654165726098
H       3.058412199571897      8.949825901309358     10.437721531824154
H       3.626085078873408      1.714776333611485     10.565599224765609
H       4.910519439102760      2.433164578752388      8.232908030635572
H       5.934466553899751      2.379093466171056      9.662613317862576
H       3.889326794910423      7.740999887891342      8.343650080109242
H       2.859528804482814      1.210475459926141      9.060388122401021
H       4.242938900552955      0.743788942525571      4.081945882026886
H       5.416229523394952      8.930601103712245     14.396403350087226
H       6.457789729692345      1.587541838657184      8.165738428032242
H       7.803272362081825      0.316813936229351     12.425872002158792
H       6.609505104188020      1.348549011533565     14.329110866816647
H       7.145269333964801      7.374375610788708     14.932586326149719
H       7.118390592141803      8.601730807755050     16.064522843877480
H       4.768395702027290      0.366708911624077     12.109889447418865
C       6.803361874205240      8.836865866598647     12.724866604757043
C       3.857091192077974      8.271601306483428      5.713808927629177
C       4.642911681746014      8.495956741946847      8.082444742501748
C       6.448819749974363      0.292363825898672     14.091944178035282
C       5.765434790780874      0.473855864447420     11.665803853477589
C       5.785568002085310      8.632584290153906     10.369166953657460
C       4.181988997521421      0.343542709142782      6.764636675416278
C       7.231236607991244      8.535406128676582      9.875153149069842
C       4.893234125021296      0.506180163104669      9.250857333102632
C       5.592806423579330      1.796389381813738      8.803080983775828
C       3.536687653569108      0.887698378302605      9.855078698717303
C       5.240002666613570      7.215773261361828     10.593940892295423
N       3.479998636410609      0.132065805672812      4.408720263732139
N       7.314667342258444      8.384674397634274     15.079378950355505
