58

H       0.119052565828309      3.470647579011829     10.953500611149318
H       1.663512120325442      5.108312071653420     11.777418026528611
H       1.662436858354166      5.105621727796779      4.648727523651693
H       0.475534095186186      6.301601417060854     11.764811498198581
H       0.213926218103435      6.112449006257587      7.043875533186512
H       1.471235251154360      4.871426352967594      7.048778338196348
H       7.423051228772585      4.713214833337291      5.467122347830936
H       0.345066859637458      5.000441918867097      3.628576136821517
H       0.478371400478609      6.302775432427357      4.662681199804844
H       0.110483928382205      3.472674414194116      5.471534486899596
H       8.147502661205008      2.371097387062758      7.334429985322383
H       0.347254518652387      4.997997968059289     12.798176957318555
H       7.425199389149675      4.704588369367060     10.959889853805452
H       0.208142724019561      6.113000942982213      9.384598598585830
H       1.470583620938942      4.877204110702251      9.376484257433958
H       1.072902241323505      2.649775476542640      8.217722567977344
H       6.314119430347671      4.195316382092867      7.335660333420636
H       6.313851769652155      4.200092029278509      9.090212276127863
H       6.595616497328625      5.710613221746717      8.208806490186145
H       8.142225856410331      2.371425726784460      9.090695280984301
C       8.307866574746924      4.364018783649248      8.212747035434456
C       6.800668641481803      4.632778385595970      8.211828003401761
C       0.384533127964780      5.027505617495057      6.990342873681261
C       8.489570026150961      4.534740921985851      5.634040501009740
C       8.579611120727185      2.857083092753823      8.213766707560389
C       8.492425279107549      4.531854119738316     10.791373516577181
C       0.383297151753010      5.028711121020427      9.436470169595770
N       0.642868919332639      5.282822737421839      4.573439136331918
N       0.643401640034513      5.282134383955372     11.853356775355188
H       5.954434834877731      7.977131824784836      4.648552932672063
H       4.637849939407484      8.083470127617392      3.627653848241097
H       2.011583630026968      0.123561389392953      7.335697480165535
H       3.817367350571496      1.975138414295206      7.334977887634544
H       3.821468708577694      1.975222573723202      9.091475223594644
H       5.334450174817097      1.716044503639044      8.209696096493889
H       2.011944044345288      0.127255228311273      9.090014738530027
H       4.516914694039513      6.967566426737137      9.383286463915461
H       3.130776290835832      8.367930120693243      5.466653085912127
H       4.400379097752899      0.884099977666651      5.471871570743113
H       4.511894799282485      6.967450535060125      7.040078022152473
H       5.761562521153520      8.216209600161386      7.050409349958089
H       5.953924778939996      7.979143859215199     11.777093900998855
H       4.636280042816287      8.080647890401062     12.797392777888124
H       2.314298540100587      7.341104600956316      8.215880541996915
H       3.129254627855343      8.359643277615897     10.957244768522251
H       4.773524552578963      6.778327491919698     11.763951132362319
H       5.762215698623698      8.220718921082639      9.375910973382117
H       4.393066967790379      0.881683917381540     10.955049138602586
H       4.770408737976661      6.779930788969886      4.660438155442140
C       2.504975927355171      8.421518670298928      8.213540923562180
C       4.197187087375848      8.546882362386834      5.634014403858451
C       4.194998119378385      8.543741741226171     10.791175634706804
C       4.677142446921527      8.054144223679549      9.435595915398896
C       4.008596613638783      8.709739070559509      8.212672305781110
C       4.260215597198628      1.495002876992033      8.212224418429285
C       4.675963848100721      8.053529076653184      6.989435724017162
N       4.934861026847250      7.799934200702421      4.572391694674988
N       4.934846479197684      7.798766781715138     11.852648597952490
