48

H       2.647668747754549      6.894892546030671      6.321552267490598
H       2.801319597290987      6.416919558435200      8.753129886388143
H       5.356450476983802      0.079688870237093     11.035571294812907
H       4.099415134372388      6.641730214097570     10.841885849620324
H       2.425241790749504      0.590269012433013     11.059784307214814
H       4.382297288386497      1.865353899013884      4.667544029319895
H       3.092846286974175      0.641104935472274      4.530536499599870
H       6.024839240421342      0.140144202916674      4.506983068194667
H       4.896100971031190      6.708936423243871      4.449675365443072
H       3.483153630423598      0.710946411171847     12.334868038706698
H       5.840967095406892      1.609806555452108      9.186572695060477
H       3.588085523502028      1.798229124668013     11.067726886361600
H       5.674968109928500      2.095476138168543      6.757907699024824
H       5.003639201775501      7.785988377133751      3.183748188838126
C       4.404661186497531      7.656601817257386     10.571780883262951
C       3.437267586142010      7.177521933327884      8.303172280909028
C       3.354139559897156      7.441463194354967      6.941226653083731
C       4.132741175866506      0.625396461807359      6.418444804140559
C       4.084319641291636      0.849260054039171      4.937883375833155
C       5.039620559382631      1.335976991090336      7.209333032151971
C       5.124028685232266      1.071542172327608      8.570491962101146
C       4.305116862785535      0.099655906663835      9.152613831408125
N       3.410464184111277      0.806415324064958     11.315310756284600
N       5.082183530835215      7.701080681017101      4.202731301360352
H       6.849248283077706      4.124613820756975      4.287900477756975
H       0.991065528325574      5.592017489047137      4.598795346063037
H       0.088813915268342      2.762854966301122      4.455411213274672
H       0.175381370144198      3.862176760687551      3.211272541254877
H       1.579868691417722      2.591232235960284      6.772398504245289
H      -0.030069627479093      3.718200908651519     12.384544453512410
H       2.005788949387818      4.141402559469760      4.782398036712640
H       7.475343436112076      6.470404879748163      6.283726410023393
H       6.729271748941954      6.313096862474848      8.636406140179492
H       6.987167004006869      5.318515350244700     10.763737215694272
H       6.110456668675619      3.821984925268563     10.433876258096562
H       1.207675917755306      3.814101955879917     11.255326162269894
H       0.175868908842545      2.501371807384359     11.260915345113389
H       0.802807577959356      2.400405196780937      9.092003803535881
C       0.662544020562030      4.515898396446338      6.442486958857136
C       0.991064280244209      3.395360439946143      7.208352041106515
C       1.022634468600170      4.571594039765089      4.989234249259799
C       7.712270964141191      5.587440858723340      6.871722492486168
C       7.292297597907153      5.497004247685613      8.190852460518268
C       7.597617200003135      4.366286507829394      8.949472729383306
C       7.090341450112169      4.309185378300463     10.358190156948428
C       0.550018735103380      3.292721667223095      8.522942466349045
N       0.218527224896947      3.528549816176747     11.404588094464323
N       0.017532285856844      3.772175900187897      4.220496600263457
