32

H       7.364540241941058      3.693888288250134     15.070788945734019
H       0.603065739005572      4.320333370486936     17.901050280256356
H       0.317104523474830      5.483724831776072     16.582381960585735
H       7.606556969098857      2.589048669247028     16.291587134923077
H       1.579723240260206      4.221577273840953     16.409878480277367
H       6.441400149936917      3.779686802204760     16.434994379001225
C       0.600240088144428      4.459211078561346     16.823810077482701
N       7.397814697907784      3.581600810514420     16.091183054634225
H       0.975577333062222      3.688584752914891     21.102598556960640
H       7.509694232115586      4.788908852988357     20.791390188988679
H       6.791634714746379      2.777703149468344     21.933898231164839
H       6.885249269873624      4.264614270234685     -0.149751545661092
H       0.872242890712516      5.041782753767104     22.079600920381623
H       0.459706466421305      3.107786641654971      0.208360267051659
C       7.339899705957358      3.552224103262564     22.470865477136122
N       0.330157539935219      4.296991070144915     21.630184876292592
H       3.984923905152750      0.405137843569785     15.072217737936873
H       5.307981079750140      0.542607946206717     16.087222015873326
H       3.794417487658067      6.666185268169387     16.860748156375085
H       2.477560071396096      0.130288323299850     16.920421968903607
H       4.136352168871731      1.721390361651753     16.098212611992604
H       3.873518556574677      0.279090607733887     18.028248098563026
C       3.585911936720396      7.728128441560703     16.987451697212794
N       4.287850663393453      0.701089552042072     16.009360814073123
H       4.070813232695651      0.253893047338062      0.649683925693449
H       3.872918863455095      0.143593407004119     20.814809204568295
H       2.554010143339057      7.754716566670002     21.714957245692059
H       4.062347845276769      1.622976748042139     22.692198028745889
H       3.722881175099992      6.587990720161137     21.744716467849283
H       5.301136349530966      0.337802590731784     22.751963033221021
C       4.235305844799111      0.554419769672032     22.819534930710471
N       3.576769696252091      7.610404093616515     21.671871322854869
