64

H       4.814560751519537      7.806156904139575     10.183255133396834
H       4.572322601293488      0.986664345473008     10.940512309407751
H       3.023454437330458      0.326488180195202     10.890583232653983
H       2.585167708882994      0.958368308911216      8.737929915702381
H       3.965092500766214      2.086096447681610      8.738728928401484
H       6.745479192300856      8.738769273976043      8.531710661917057
H       6.243594026495898      1.248220607017535      8.027984577510857
H       4.767208471348104      6.960863949822195      8.657369364043866
H       5.109858670116669      1.807910577705383      6.299663889055379
H       3.278035251606917      7.608119024720224      9.331750480648108
H       6.139652028842836      0.749399051728483      9.709710706385604
H       6.400553506946751      8.611830063445634      6.457983695284130
H       5.395135590981504      7.146345186652996      6.605412562806690
H       4.364153434861433      7.818955424533502      4.455885474865323
H       5.974336767126114      7.477707791435662      4.366199583129011
H       5.481167992249000      9.050955843834741      4.345612844843134
H       2.685698405170484      8.293597858327315      5.635672518731797
H       3.921151708575629      1.172267902138382      5.159200936251287
H       3.265148306887729      1.968558462096164     10.885245769431144
H       3.092533418996889      7.223348506972406      6.976193882119938
H       2.157487172086691      8.707209163705011      7.246529317406933
H       3.382569544368909      1.874375867697598      6.648469792344054
C       4.170198032515770      1.253490464606450      6.223632993361593
C       4.296987455361744      9.007549875940825      6.915838831713096
C       5.417248084679223      8.185059294320052      6.269823243933612
C       3.630013510528066      1.087921584128139      9.027322370864338
C       4.342595873536922      7.809550914010334      9.193758023380983
C       4.601332336742290      9.127613218725877      8.462081182688356
C       5.972477218117479      0.422884664777791      8.677755450390933
C       2.986784210613552      8.267196821381276      6.687366197662481
N       5.291916365266440      8.137139576262339      4.781790837637736
N       3.632427107234698      1.073612511544976     10.523965787962773
H       0.466464806157518      6.479541122520474     10.911030094135320
H       0.536422570485373      3.633561271781129     10.073764127862255
H       7.667230845504499      4.534684819849292     10.346332986589198
H       0.523551193381392      5.186911246783867     11.957009174690194
H       1.761665003617239      5.419966882941812     10.874359448698822
H       1.294962701473845      6.958176863749405      8.925451580960585
H       2.234499832725795      5.477701814416942      8.630281530720584
H       1.405392361711542      6.303546724112407      7.316910773882988
H       7.447106915840422      6.871351315557612      9.309092298775385
H       6.565345919161161      5.666832955944512      8.373668182386609
H       7.612870696846107      6.861563588418141      7.559974388963087
H       0.070146066022260      2.924541843353681      4.995184094824147
H       7.419380261996375      2.442435265311645      6.974295804036410
H       1.520783626866496      2.934716865389843      8.534677636237015
H       1.182904987567464      2.353083891626108      6.918203730621713
H       2.147998940268162      3.828265232498242      7.151410215299110
H       7.698030924362637      2.605711786913947      8.701818543296742
H       7.323151574986195      4.845661586056004      5.892752930827831
H       0.161783114719828      5.711636901694086      6.027603294159682
H       1.361174874902143      3.984281693955573      4.990916630173239
H       8.667084587008544      4.396201159959672      4.067796631675241
H       6.533628749203459      3.673268452856869      7.886124195206942
C       1.324521025912124      6.021415624075998      8.364474777325805
C       0.052008844078771      5.211021749431215      8.583273042512616
C       7.509454000037358      6.214338770151368      8.435941667187555
C       0.031493398198449      4.599582837422293     10.005005909599756
C       8.645530288134827      4.131212012792855      7.488660371793413
C       7.500342219316123      3.170384116571640      7.787115961244493
C       1.288817768588898      3.262377035904232      7.519348150930487
C       8.395553357520285      4.773953284580470      6.099850721679441
N       0.329891546884812      3.931790406665312      4.987070964804749
N       0.735345055298000      5.483088454608681     10.993088806437640
