30

H       0.760220856961575     -2.282681939269371      0.556276113547918
H      -1.094310001753863     -1.963078657625568     -1.065255760336525
H      -2.552616773386672      1.887182289563306     -4.171665532574123
H      -2.288391868910724      0.659677844337285     -5.274010839907690
H       3.550131591341876     -0.469065194198270      4.185683973313218
H      -3.004629872134331     -0.284113899691020     -1.750683918519292
H      -3.550131591341876      0.527315443834743     -4.192253555615046
H       1.069259252037702      1.963446321759193      1.060597536537616
H       2.479892653300564     -1.445727426182152      1.850018049219331
H       0.654564807110293     -0.573036495432766      3.484482248618026
H      -0.666835210717034      0.711300539886707     -3.461486501079636
H       2.290064709246994     -0.536218317924377      5.274010839907691
H       2.515623369918573     -1.801870708014842      4.205308542224239
H      -1.527763859222828     -0.833310774068092     -3.608112066356242
H      -2.547530115784090      1.426020603792297     -1.814799066301631
H      -0.785369144856420      2.282681939269370     -0.558832482225569
H       3.011557062277045      0.235997589408221      1.702161069116482
H       1.587866356435640      0.934721042190304      3.553169709032714
C      -0.624537862628263     -1.100122571388718     -0.595136080151505
C       0.421429242140663     -1.279225244927188      0.304009472087165
C       1.048933508850522     -0.184741686688225      0.902955388565953
C      -1.634869628118789      0.220369265946029     -3.333820810030407
C       1.642234901922556     -0.133610258081486      3.323359431394717
C       2.143582562653827     -0.404339728981910      1.909473774222201
C      -1.072096346643492      0.184255025066737     -0.908067415252297
C      -0.445091818005064      1.279113422408312     -0.308652629418896
C       0.600824800978070      1.099917246978373      0.590153737135532
C      -2.164961855035172      0.403788602158501     -1.916444339860196
N       2.561583920366499     -0.770547503600286      4.309538903012523
N      -2.569997918156129      0.857988361020084     -4.304531704577087
