29

H      -2.006088536002866      0.810077053597462     -0.859700713156646
H      -1.988383338946936      0.817734763625836      0.907044335171411
H      -1.080907801885765      2.061733069270679      0.009477179402766
H      -1.176433081102374     -1.591217756461892      0.901419832580165
H       0.284287612128902     -2.061733069270678      0.016034058183522
H      -1.184186188718638     -1.601447377270881     -0.862167683895381
H      -0.853738904286765      0.311490633747741      2.719605948175650
H       0.229264833222012     -1.101356565086253      2.713395861036268
H       2.006088536002866      0.384732178461403      3.579688598131607
H       0.824794528575331      1.633217047766677     -3.662562580845118
H       1.941536081518803      0.373772487198401     -3.599813831547877
H       0.901561885211595      1.505086005095860     -1.260511193302479
H       1.747379894460336     -0.048767606478327      1.108229662226670
H       0.665648917257184      0.273549888182766      4.597933731736497
H       0.890961749588945      1.644472077520537      3.648156662514930
H       0.588242056838541      0.254299402256695     -4.597933731736497
H       1.725111683129323     -0.055318072512964     -1.129574961019967
H       0.922377233041719      1.509797743846223      1.253720137050003
H      -0.904082915191142      0.312284934540190     -2.692899454095809
H       0.170593373213194     -1.106348431905481     -2.702012064777667
C      -0.127114666059345      0.096992562578547      0.007385160280124
C      -1.369660162462377      0.999645110870263      0.016580950176525
C       0.135750623153243     -0.017375932529719     -2.563002401639736
C      -0.567095256603166     -1.372132300786329      0.015694971765269
C       0.185406150165227     -0.013028388840081      2.571959277424762
C       0.733789921661518      0.415322123115502     -1.233293494913789
C       0.757102545147323      0.419632530461802      1.230571106649958
N       0.989081186663143      0.605380045859246      3.668234507780996
N       0.923643693197948      0.593661461042808     -3.674811101755243
