42

H       0.178239501753923     -1.831004775411073     -1.069444789577059
N      -0.847490809369106     -1.443944806802973     -5.746110489573141
H      -1.825170145759937     -1.181684957802381     -5.529772000202715
C       0.519325258505953      0.580930863131526      2.953791882612451
H      -1.341041923641789      1.430584290129889      1.183860736431949
C      -0.356835435210481      1.426884389592649      0.699808642875428
C       0.566813542517398      0.443261650851778      1.437177439098180
C       0.720405044816964      0.271757693601377     -1.259516994047347
C       0.875626906609389      0.148107727721644     -2.769760756924354
C       0.132117688369291     -0.620564961958160     -4.984537541728309
C       0.781122345138574     -1.085682828330202     -0.535311755991506
C      -0.237668339706815     -0.573178092478699     -3.516413670482057
H      -1.489722805252827      1.258098845859037      3.464027918308901
H      -1.409178410632991      0.438359654476425     -0.939635720139002
H      -0.647026588461738      1.954584128839826     -1.406183568231034
C       0.298761596799254     -0.972289874780061      0.924300352011045
H      -1.626281457619912      0.175157322773742      5.650745306975105
H       0.041107232105881      2.445670041573285      0.803417921036658
H      -0.369903946575580     -1.596942156632662     -3.142356024840110
H      -1.197754483779567     -0.053332771304782     -3.392425584690726
H      -0.727520399636132     -2.445670041573285     -5.496356268860190
H      -0.777046059253768     -1.186579640597138      0.986912856089029
N       0.214114521842323      1.177847645573458      5.736085835599306
H       0.797130595861296     -1.716678834965887      1.558076352277803
H      -1.364359386181887     -0.481993180141909      3.216474037971979
H      -0.700387640105943     -1.352507162439694     -6.759953987697241
H       0.913941921190208      1.575028519899869      3.216344564365595
H       1.607304765918640      0.679915383383103      1.165637858722075
C      -0.839050636287236      0.389442195111817      3.625632231683989
C      -0.675544208448585      0.140605030617701      5.112456930174504
C      -0.509479892573227      1.053777573275658     -0.793708471471639
H       1.593933203982928      0.852409886676144     -0.935927585932927
H       1.229054701484429     -0.146896991121269      3.374725035304841
H      -0.196907148467092     -0.823476342865427      5.304924082588183
H       1.193658717975293      1.075552517730597      5.422156087949640
H      -0.101057759056166      2.140461584464579      5.515171628180171
H       0.211991497316358      1.071852828230766      6.759953987697239
H       0.967018690451212      1.155823243073955     -3.197275591319086
H       1.825170145759936     -0.363251786894688     -2.981010706330458
H       1.114207981136907     -1.079915052188980     -5.135005428993762
H       0.140685518260048      0.377915144245203     -5.432490641440431
H       1.816060856221720     -1.449924872613272     -0.562783092913110
