41

H      -0.126382467325406     -1.076431942990608      2.795217494860440
C       0.884587783762798      0.631211107357848      3.638689040445087
C       0.745425121670600      0.582662734972683     -3.628571729193714
C       0.535671887758026      0.348507579259869      5.084456587377097
H      -1.100208622723749      0.391984121605010      2.835745726385538
H      -0.481997317522405      0.662941745833447      5.334296976039498
H      -2.450935603216282      0.286399134774660     -0.812353266438675
H      -2.419530113023939      0.287344364788717      0.951503690175537
H      -1.228135622263193     -1.969843867871365     -0.818953321142958
H       0.319115072662232     -2.138524183495150      0.029332765786041
H      -1.187600660676763     -1.957280161529376      0.944901699753959
H       0.905282939381259      1.719486870505997      3.486331465201257
N       1.277919487548067      1.029822542592091     -5.971216914375425
N       1.460403860404533      1.121614883296040      5.966145245845700
H       1.084709471656828      0.820532551436785     -6.960496242227280
H      -1.211948424151806      0.350499697827829     -2.755352005002284
H      -0.654506599482973      0.583188968510365     -5.299438571953838
H      -1.747510054577202      1.661706227768833      0.056090025111825
H      -0.233271270645787     -1.115609451088185     -2.727988882014612
H       0.482353641548279      1.442901910422373      1.161307112968235
C      -0.651748335360593     -1.630705816006281      0.047848802982280
H       1.901108164679828      0.266569308819472      3.436499047177429
C      -1.851705712542524      0.570391862518476      0.058957807261768
C      -0.478986318862263     -0.110028623194112      0.033834372909562
H       1.384588066981443     -0.060056101566694      1.100321769378803
C       0.372932872899106      0.350349108385103      1.231610101317637
C      -0.089671828044896      0.010016307012813      2.643430754875256
C       0.320521303294463      0.334995679954694     -1.204870411408772
H       0.761442417454877      1.673619930909909     -3.496563966132232
C      -0.194232509480052     -0.026993540443513     -2.593718636741251
H       0.645252618490984     -0.708850222719654      5.343933688902402
H       1.282404144062443      0.924423487832014      6.960496242227279
H       1.333147108691174      2.138524183495151      5.812741640283866
H       2.450935603216282      0.885174735821273      5.767090459338018
H       1.338127385524627     -0.070424015139285     -1.108975578535116
C       0.367222343981451      0.272749108496575     -5.061391030217318
H       2.270845153756216      0.795031430178038     -5.783951000984311
H       0.429384526444208      1.428729082313386     -1.154808767700358
H       1.769773130499674      0.229946895784135     -3.445962195692277
H       0.472502044686379     -0.789270133322242     -5.303322495305246
H       1.155723922754806      2.048965131896099     -5.832315505441063
