42

H      -0.237799860570407     -0.751090472994651      6.688280766902960
H      -2.333805185404480      1.080565194147581     -5.362548958245235
H      -1.158194298220515      2.288978520704719     -5.471882730335544
H       1.012809960619657     -0.658219268051233      5.587263526751984
H      -0.667210806291401     -0.635323793465663     -5.264980884277477
H      -0.038795074239456     -1.941410770647020      5.537540291443957
H      -1.284874000695511      0.457535253999425     -3.100541466364136
H      -1.352839262587102      1.166832406118581     -6.688280766902958
H      -1.438646585506486     -0.876883031799423     -1.548793674981434
H      -1.485784214376995     -1.675473315423277      0.980202586126582
H      -1.366827473752743      0.043180218715998      0.645779347555525
C      -0.258134229317928      0.195807666020091      3.484104243239106
C      -0.582244362690559     -1.204778706740282     -0.947662890197892
C      -0.367965044621824      0.390413896329032     -5.036234513982877
C      -0.288379172054164      0.608771528081631     -3.539413257989334
C       0.712160592053303     -0.533479780224096     -1.446093013117245
C       0.974119646738991      0.751310395036739     -0.659171228737057
C       1.255371523862264      0.413642048487426      0.822128880752317
C       0.500718315973662     -0.856043438442406      1.268377629080078
C       0.364455050671660     -1.009250505030042      2.781386326094102
H      -1.039750377442275      0.651571948746533      2.861480643770641
H      -1.802185582742246     -0.759060868574321      4.687085373884766
C       0.724304121744455     -0.377134500672492     -2.960167542587094
H      -1.181797764437247      0.761434180861983      5.349210103411538
N       0.019945210058797     -0.916327898274675      5.704304262925110
C      -0.837947561020735     -0.911668888558921      0.534959791107694
H       2.333805185404479      0.272111515081715      0.981471505132061
H       1.350201083258876     -1.211914160659935      3.221569473815157
H       0.959371520623515      1.263702332548422      1.450221675207114
H       1.071540581154137     -1.729125356410055      0.927734026550583
C      -0.904093493196283     -0.144650011768708      4.808442843244197
H       0.595163992134305      0.580972400280109     -5.516038974042113
H       0.005018398859882      1.646110780875401     -3.322204963763589
N      -1.364742296929937      1.290039297796984     -5.669642284679889
H       1.546807372889379     -1.207091844126889     -1.215663594103239
H       1.726159162106075     -0.078704122715100     -3.289056104724879
H       1.817359724190094      1.302211694980935     -1.095579232349639
H       0.100912830607378      1.415032589153634     -0.737518781155897
H       0.530857998132619     -1.364309305981851     -3.403532142509370
H      -0.246941713179226     -1.905379516898466      2.973405915494766
H      -0.495362755025871     -2.288978520704718     -1.108652369680813
H       0.490868264456973      0.981490995662008      3.645754532988146
