17

H      -1.553126189145974     -0.298049595284850     -1.191589286951727
H      -0.385448956436439     -0.399812581355062     -3.312025961135354
H      -0.293834762688329     -1.560953909890779     -1.187525234627017
H       1.553126189145974      0.356519395726945      2.258556731497743
H       0.248587262620076      0.264219854581822      3.312025961135353
H       0.349355148907883      1.560953909890778      2.250992769112413
C      -0.230738609649501     -0.228698619147512      1.319678359519962
H       0.071372502430432      1.321423806560767     -0.142805483344190
H      -0.040536992791447     -1.298019135485884      1.490351289316833
H      -1.301020277309607     -0.037594105600904      1.483139068682637
N       0.067594121165364      0.054882521120127     -2.487931100157398
C      -0.467840126852513     -0.475188635733019     -1.195747176592268
N       0.528068705653498      0.536161828028755      2.351997285132578
H       1.326578840630265      0.062569906856974     -0.137533428645746
H      -0.087413174500073      1.084399629353658     -2.563811115205965
C       0.240160237151647      0.234846274927810     -0.051715014021846
H       1.097389640345456     -0.101739130148450     -2.559944151672925
