29

H       0.720046758108569     -1.542300849489793      3.731765113945031
H       1.632701276478744     -0.914106257346025     -1.209546012788464
H       1.713135740040348     -0.546846931566790      1.252719456635961
H       0.293311499180857      0.763732310480525     -2.687488174132224
C       0.534519696455251     -0.848887940661856     -1.223499005996882
C       0.614919320365602     -0.620799524989467      1.246933567807560
C       0.721326352246897      1.409723209223528     -0.211251904038504
H      -0.962308207373481     -0.490080420150397     -2.784963279391081
H      -1.832234681667638      0.554099110044212     -0.936607197639083
H      -1.784617108295997      0.739760202229046      0.813318134646241
H      -1.890724640272603     -0.873130877785941      0.097907943221222
N       0.883450113974297     -0.992513517590466     -3.632269012057602
N       0.794723193905619     -0.509805774897693      3.702077659787055
H       0.198754590232302      1.109034379537887      2.527652453448870
H      -0.992794685236872     -0.196404424610899      2.668292300480522
H       0.154326824018638     -1.872491426269547     -1.107429310805174
C       0.096120234441377     -0.306516148263720     -2.578691008626552
C       0.067821167868684      0.022480634048564      2.513756438077581
C      -1.437748059210010      0.118880704191062     -0.013961012846904
C       0.087158409460605      0.027675361955408     -0.045974666964089
H       1.890724640272603     -0.760836451626315     -3.521569260206252
H       0.786690780653527     -2.020538921266593     -3.543542143471789
H       0.593084083043865     -0.724172546407396     -4.577381304321097
H       0.412585392352353     -0.118558824558206      4.577381304321098
H       0.265833138629947      1.977823957397830     -1.022488412691855
H       0.638360663186659      2.020538921266593      0.692719432411312
H       1.779973041641836      1.296330724012612     -0.454952773056867
H       0.366228501773496     -1.690673337828085      1.259981852892307
H       1.802326652472797     -0.265037122808449      3.650741648878173
