44

H      -2.046853948686835     -0.026124786882050     -1.788088129360125
H      -1.102558181544335     -1.240735386397775      4.562781594100485
H      -2.078792751704093      0.064263943033890      6.313923115759081
H       0.546996472369964      0.423398819329389      3.711165669473708
H      -1.747476026348584      1.517091234208324      5.496945965014630
H      -1.406433758989997      1.518957102516869     -1.212281706794273
H      -2.277865764202617      0.443538348022158     -0.104843327538537
H      -1.195755298811970     -2.010309999757371      0.258610884949258
H      -0.816104797726537     -2.124107679921680     -1.457894087396495
H      -0.430821939268985     -1.296492539527503      2.116434755443056
H      -0.644701078634917     -0.340393600872090     -3.248939793751355
H       0.590254369610896     -1.585310960931877     -3.062923924984183
H       2.452816143710139      0.305843257681573      0.477924975224429
H      -2.452816143710140     -0.233612084238509      3.987657046558143
H      -0.356582097033953     -0.170266416975307     -5.585998971688641
H       1.802022294301098     -1.244421989335987      1.039226702777624
H       0.785713167404474      2.279148503722464      0.000939532691664
H       0.794632761707939      2.232315680108928      1.764153900003002
H       2.004363239335609      0.102791852478215      2.166243624125586
H      -1.687397438000056     -0.143762748002946      1.678851526931672
H      -0.745948545706658      2.269118123964857      0.897809757655342
C       1.711139578908909     -0.155470343850578      1.140877757526736
C       0.797220112513203      0.091844350219345     -1.686776183512610
C       0.425033488649063     -0.497688900533759     -3.050623933168938
C       1.198022948693005      0.122696433069073     -4.205555175993005
C       0.281990398237818      0.321608386758733      0.847224757790137
C       0.270826178449866      1.859941872586949      0.874381305818684
H      -0.766594348130351      1.528131898897690      3.269526854967532
C      -0.230358888051184     -0.218652394942648     -0.561731500603304
C      -0.491087336236188      0.465294736694293      3.341787438426753
C      -1.413685676066588     -0.211248373331948      4.341810571101684
C      -0.451715193444512     -1.740497856351642     -0.495451185253771
C      -0.630670394734794     -0.221236247975687      1.981056566325059
C      -1.561053660801822      0.466473101697514     -0.934696801435711
N       0.655987027534412     -0.402045292436906     -5.503450132473040
H       1.793489836162507     -0.278104081991208     -1.403868124025371
H      -0.495663436649362      0.544177604274011      6.067217162153929
H       1.088798001076261      1.216698046739005     -4.237008923662756
H       0.473979825916754     -2.279148503722464     -0.257944059260928
N      -1.438302121929366      0.530723372758126      5.639845131728935
H       0.892500889797194      1.184666601505431     -1.788139093964427
H       2.271506949062209     -0.113896201000543     -4.182524791880885
H       1.166752121217982      0.009882276736028     -6.313923115759080
H       0.728909659182198     -1.444104378698553     -5.546943451782056
