36

H      -0.716904458344474      2.825755808409444      3.053176797013876
H       0.021260902179061      0.116624265499709      4.313493825926804
H      -0.003072432542508     -2.311042194409569     -5.028428847669552
H      -0.416420731434881     -0.641149729955045     -3.266472303287591
H      -0.340302857714343     -2.273494073222061     -2.628410763369449
H       0.233288477562194      1.427230565524231      6.154898545347548
H      -0.383032695207163      2.438225191310336      0.622068604763415
H       0.534608768138998      2.854062863420396      5.328264498231295
H      -1.698836682672781      2.112596683295403      4.335465991821478
H       0.099957476099553     -2.452377118380860     -0.076946237492410
H      -2.613329031418890      1.557450399458270      2.121098585323985
H       0.948096083879295      1.589113696738657     -1.281694714658735
N       1.579996508438342     -0.942485106762009     -5.134982415668304
N       0.708553459883810      1.823607715723659      5.319892366726293
H      -2.180211999583761      0.124356320164534      3.045525775386086
H      -1.212907900988577     -1.605232129497146      1.841243696934805
C      -0.271801954245086      1.359968302713177      0.482036504572294
C       0.486489322034457      0.883259619172653     -0.588046578853168
C       0.821849354911894     -1.994423471869894     -4.378770298546206
C       0.225025054700121      1.168175922130897      4.066606647090552
C      -0.749378952078857     -0.897102223227221      1.151192302567452
C      -0.912336102021182      0.478276997114536      1.364906500679197
C       0.003091279431469     -1.374620524543340      0.078875441175574
C       0.630934972915496     -0.493466619065821     -0.810759367021958
C      -1.007935009037543      1.868402986544694      3.514233930086073
C      -1.756431952708865      0.986525664789259      2.507976881271139
C       0.276850844034525     -1.472694166640147     -3.063701011111031
H       1.271942250905635      0.027085144044966     -4.885563557805627
H       1.429138697407524     -1.039700752123066     -6.154898545347548
H       1.490893414335815     -2.854062863420396     -4.248265189855705
H       1.971669003797688     -0.239458780745938     -2.464849167179844
H       1.986026233278208     -1.872280522845939     -1.777083030084342
H       1.737693521663967      1.679578623131812      5.434356897622102
H       2.613329031418889     -1.001867957226638     -4.981413240491753
H       1.057927855969970      1.177079338335781      3.351858300262512
C       1.329744527655420     -1.025710747533064     -2.036861526285672
