30

H       1.989882652961020     -1.881552224249162     -4.555802489396357
H       3.146814394875106     -0.668676498461458     -4.443756872760892
H       0.279176200209340     -0.599857766263121     -3.627985039911734
H       1.936763170641832     -1.821758389806217     -2.135033305356447
H       1.827081339568307     -0.499622013780288     -5.471553061570082
H      -1.899387443034345      1.818364883183657      2.239877317667126
H      -1.087729295962288     -1.777680241698720      1.359508910421283
H       0.497413423289897     -2.375713229189100     -0.438055788544245
H       2.815465354075226     -0.308818573889237     -1.941209139060670
H      -0.605138773854220      2.375713229189099      0.405421483947679
H       0.955734129256089      1.776984880805317     -1.417176140937605
H      -1.441919532423406     -0.967917000029725      3.461520009277431
H      -1.989090014966066      1.691467613537316      4.638233246860739
H       1.343608146663015      0.824262984464168     -3.571267836673117
H      -3.146814394875106      0.493992432033952      4.527348003107656
C       1.817320349080783     -0.733312742545055     -2.121001721728294
C       0.251101451816386     -1.330897232207396     -0.252773676458492
C      -0.641028064443004     -0.991142336024729      0.756548723195271
H      -2.893232885954557      0.396676369680453      1.972123902264896
H      -0.304728341576701      0.383097972334028      3.609259974209037
C       0.511961281754585      0.990267286486082     -0.809748669183575
C       1.306669049721493     -0.264168710003901     -3.468328565568415
C       0.853453548383041     -0.347227889383295     -1.036797833572307
C      -0.957934110617142      0.346803134101588      1.007729368164217
C      -0.368762019856649      1.329961702170108      0.211530958762012
C      -1.860453692265950      0.727668650837069      2.146255413467388
N       2.128828741982647     -0.852212586961622     -4.555344463153663
C      -1.353591943809436      0.122303568411283      3.441767544714368
N      -2.123651697231813      0.660144725161798      4.590250041711293
H      -1.774099368138549      0.263246687843061      5.471553061570082
