23

H       0.217484721157431     -0.168214787966381      4.564691845114337
H       0.225213801509415     -0.225402165951852     -4.564691845114337
H       1.511120508324336     -0.263856905175764      3.510028682188402
H       0.336395721383458     -1.463044707655277      3.514430941190852
H      -1.330509753364995      0.122366705191173      2.737384495169874
H      -1.515355144903032      0.281439733904641     -0.000940872950754
H       1.515355144903033     -0.314699255637938     -3.505186583491667
H       0.337277992080363     -1.510733490574741     -3.502030554205552
H      -1.327658173547408      0.091144087082647     -2.748214590408755
H       1.294462573118390     -0.106274724738052     -1.164211564915592
H       0.037205163538798     -1.296604016196561      1.184268695664503
H       0.017985018251204     -1.318970267914081     -1.170083989680943
H       1.299154281931899     -0.069035420415821      1.164281281792599
H      -0.060770976374905      1.368426960309103      2.707619031491276
C      -0.261488018941156      0.266604921703335     -2.570391104753313
C       0.204671426914850     -0.237075034450436     -1.221058007181399
C       0.210958470834611     -0.212023380284187      1.221041359805495
C      -0.264451979624968      0.302347761121778      2.563174214839078
H      -0.050979291120377      1.330169851183712     -2.723386049453086
H      -0.245376538795893      1.510733490574742     -0.016726007978353
N       0.499094676880120     -0.492571703993916     -3.608751893368675
N       0.494921921836850     -0.443622938929000      3.612061474275539
C      -0.426782839417211      0.427865916472955     -0.004995868754029
