29

H      -0.906032379521193     -0.062306011999656     -1.550820554523383
H       0.436574330987619     -1.212607036984677     -1.536592515361317
H      -0.058920033627251      0.961059306775530      0.579575632353531
H      -0.183825434843583      0.896970380911071     -3.786859639296019
H       1.265059626381406     -0.205142489403165      0.626012241156936
H       1.612298314945392      1.498798957392570     -5.235292385420711
H       2.077675582405035      0.670062541642920     -1.700696597587483
H      -0.953500315828094      0.302145760963427      2.664433112399129
H      -2.360286191992997     -0.056160468968152      4.582979800033025
H      -0.355378764003305     -2.087501603727306      0.831324196128422
H       1.501683279310112      2.633124452065747     -4.006205125998605
H       2.737948850936430      1.445626986586456     -4.004144122234500
H       0.751470435898060      1.845471831098603     -1.656111616175728
H       0.280526130025116     -0.926752690654593      2.960331486047888
H      -2.737948850936430     -1.556062238414031      2.804169974576306
H      -1.036829364962469     -0.908250055372457      5.147334612326372
H      -1.451064218407601     -2.633124452065746      3.415847282300755
H      -1.710841391203287     -0.971683580774673      0.616036951638055
H       1.112274746560018     -0.323580016974242     -3.817356064950786
C       0.847510111777065      0.685378094586618     -3.473777360638683
C       1.017914559116062      0.821208457709789     -1.969508815295176
C       0.223626271723514     -0.065981302898621      0.287301189740940
H      -2.561902963418383     -1.595795517274092      5.235292385420710
C      -0.687629463634654     -1.052081715210705      1.024106584449842
C      -1.749317197270877     -1.584295385591995      3.281987079778991
C      -0.717741268460950     -0.765043059633934      2.523225973047015
C       0.142511945500384     -0.194802194574380     -1.231102461570063
N       1.733111993202852      1.637083738058360     -4.217166446718636
N      -1.939721420781434     -1.002500780511220      4.649764232908352
