17

H       0.152034583054045      1.373686701982704      2.462098910031348
H      -0.070752437441271     -0.093526995888406     -3.342927066278726
H      -1.389317352276553     -0.130831982764767      1.320040052869857
H      -0.116786989744550     -1.378994141705880      1.328128448994685
H       0.123499510364878      1.396337735043596     -0.009436647989987
H       1.355124212121093      0.142227185000312     -2.473510194028831
H      -1.389381513155556     -0.136430164405414     -1.322654439364951
H      -0.128635377532008     -1.396337735043596     -1.307820435019061
H       0.170064788572001      1.335480269766683     -2.481552838372845
C       0.297587742688438      0.307030186650039     -0.002624597191253
H       1.350047774586394      0.193545856668785      2.469175021009492
H       1.389381513155556      0.148870222798764     -0.002104642016139
H      -0.071559202509012     -0.046958385136679      3.342927066278725
N       0.315192961616765      0.340878948167304      2.456425558571866
N       0.321606354679475      0.301433197587138     -2.462117489794907
C      -0.303954431466003     -0.297483326638704      1.257607229621366
C      -0.305800144950195     -0.312167765657100     -1.254851345081010
