24

H       0.697648716276785      1.834393737118452      0.524323648053875
H      -0.137108194624496     -0.990488212097440     -3.295697174013126
H      -1.654468994764474     -0.678624417546119     -2.610461591718931
H      -0.704370517269140     -1.807375615820729     -0.466515862605955
H       0.225412016089198      1.023495640692362      3.350180548784324
H       1.714591113472384      0.787010484999028      2.567432087084856
H      -1.889782941696625      0.482695886882926     -0.445516864547037
C      -0.909206749242038      0.954784111817270     -0.623338669903048
H       1.104163470222113     -1.859851553703630      1.238990803570207
C      -0.239158619895330      1.283064425282737      0.707929783431487
H      -0.875802256689138     -0.470452694729389      1.807779096955326
H       0.978797194155491     -0.473707182957497      3.349976029342776
H       1.889782941696625     -0.452188522853099      0.484050274665545
H       0.870896148161847     -1.954006221956669     -1.237160325008900
N       0.784819784019946      0.365431736129391      2.762866973220997
C      -0.032535660659449      0.009082699013566     -1.429509453920198
C       0.061863594308964      0.015867028363173      1.493597930188892
C       0.918671983627445     -0.936235065432690      0.675614169743312
C       0.242746522285056     -1.270604108213081     -0.652124026433075
H      -0.800966622323085      0.527452376226250     -3.350180548784324
H       0.921135091722343      0.495691047214075     -1.691810389617629
N      -0.694513741508781     -0.310408761421307     -2.738402853991311
H      -1.080027118643682      1.881762023269534     -1.186239178113879
H      -0.874464112597791      1.954006221956668      1.296101858732125
