35

H      -0.694031297511181     -1.744233205754882      0.764889456708931
H      -2.073616330472801      0.867597354294282     -3.557156569632957
H      -0.569951737241810      2.088807962828673     -1.982849115798325
H      -1.079308223785999      0.170890450104312      4.888298943415747
H      -0.678667085991894     -0.947594266557882     -1.498758024745616
H      -0.808774537073783     -0.356302527516192     -3.830180583732374
N      -0.409721023604362      1.525105566642052     -4.664301447696049
H      -1.597271124063870     -1.288181215444086      5.586065214324388
H      -0.828961593393648     -2.544447416795152      3.698342975960702
H      -1.832322089016961      0.256013057283251     -0.912648693562049
H      -0.781275009269783      1.216536720725666     -5.586065214324387
H      -0.613648659306373      2.544447416795152     -4.549994382718749
H      -2.048771115274026     -1.313501897064902      3.284201058666635
H      -1.053848913856664      1.969665185394393      0.879063048993435
H       0.763675658743262      0.993725014229614     -2.380271378435102
H      -1.692459800378058     -0.392710633008102      1.298617044380284
H       0.028900707474190     -1.023602090258111      5.362263828043564
H       0.932894429652560     -1.305130340250818      2.614248052320103
H       2.004226242883924      0.414853499543527     -0.784236568923125
H       0.424317486589574      2.356914697596742     -0.033214147420702
H       1.553668262206612     -1.253770318681641     -0.377117318857848
C      -0.762782926302365      0.090898926508431     -1.132766793606793
C      -1.003809091994818     -1.466457360716370      3.582159289734100
C      -0.647552752826541     -0.729806253190416      1.198423768517284
H       2.073616330472799     -0.126747931372434      0.898520176840258
H       0.532219374550539      1.784069804343909      1.631481853156033
C      -0.987650753331848      0.695173808749190     -3.563569189548543
H       0.621781002639612      1.421682955953812     -4.698889306517391
H       0.146682382094465      0.230244626413508      2.957190301296868
C       0.038938879541409      0.213558362065868      0.184969486135703
N      -0.902414831419569     -0.855305344004327      4.945011314375445
C       1.497598018427874     -0.209510339723831     -0.034112368913249
C      -0.040179395662491     -0.794171701067068      2.602898908556399
C      -0.328301114205381      1.046644961888541     -2.243274056080269
C      -0.017564758508698      1.660334098785471      0.691326844850304
