32

H      -3.796997564645678     -0.459122668970680     -1.509493353395039
H      -1.178509628135972     -1.405442994917308     -1.584554820086364
H       2.489878684486476     -0.577907453868163      4.968499632781031
H      -2.710085818931664     -1.391568563044697     -3.526964042803655
H      -2.080481115331508     -1.084591590842491     -0.117876530614289
H       0.959894875519705     -0.989902012486552     -0.363782959186448
H       0.035776335584826     -0.713478094012495      1.111238810230102
H       2.816173492099383     -0.817347880179029      1.360205533193085
H       0.950744833946001     -0.330638789787427      3.096065557880912
H       2.752975195785853     -1.672886711438568      3.743519245353278
H       3.796997564645679     -0.361312323246679      3.958236418719117
H      -0.657383055241170     -0.050428462103776     -3.561450870206791
H      -3.624523855796455      0.088830291058398     -3.865459728121125
H      -1.154911147522092      1.178410137829554      0.058581329703021
H      -2.929688669860936      1.054217107275219     -1.677062397875946
H      -0.227263621744913      0.969457093782973     -1.423131746629205
C      -2.844523973396907     -0.028777423622026     -1.841090329684263
C      -1.679160399177723     -0.603830306461758     -1.017378710626629
H       1.059899826885339      1.672886711438569      1.140797681796338
C       0.476617906804461     -0.209183406688112      0.239851917643120
H       2.081395996721113      1.147941239604592     -0.195036437266280
H       3.456223773023687      0.789481262809147      1.718429889961081
H       1.849688333371008      1.138167953187121      3.516390647602012
C      -2.763281600336757     -0.316582480356695     -3.327677535929239
H      -1.522286371038795      0.092564676351715     -4.968499632781032
H      -1.559124062764461      1.326872051259160     -3.852757425825137
C      -0.649701102413395      0.427651598806779     -0.563423940011242
N       2.804854989807284     -0.666093540080946      3.993132704234940
C       1.538379526539387      0.790762825928413      0.688667525393644
C       1.939256993249462      0.137836263102797      3.082244887011402
C       2.533850069969771      0.195127769935649      1.685865022138433
N      -1.548452058903743      0.293294547909985     -3.957495200727160
