24

H      -0.212039964090407     -0.666675062600983     -4.611793665745884
H      -0.257135567929196     -1.755075028182873     -3.350933943460658
C       0.847207496374296     -1.026215902843862     -0.604385465795600
H      -1.287362640193572     -0.423817876959060     -3.357215997664729
N       0.234418351916976     -0.777705214038538      3.629409950088188
H      -0.691313999057869      1.023883719010733      3.109142960020914
H      -1.684325191722492     -0.417132423223010      2.875867007014009
H      -1.216564386022895      1.864555581434963      0.932891571203096
H      -0.625804278672432      1.910423504562534     -1.462409166976329
C      -0.655496490471455      1.041261103577441      0.498457936301784
C      -0.324824466082632      1.066866174217185     -0.847755803998649
C      -0.253432089242801     -0.028280292451041      1.302407112985041
C      -0.676523595506551     -0.005432472308867      2.740490218533687
N      -0.329670113133145     -0.747297213711376     -3.594093567184117
H       1.684325191722492     -0.425572193851592     -3.111650246875510
H       1.439246256370944     -1.833613770081045     -1.029942604996707
H       0.823267217911932     -1.910423504562534      1.342673396999589
H       1.234985580617283     -0.560296849912940      3.456631105002084
H       0.116643124356790     -1.804105553896650      3.506221238094757
H       0.016935669905942     -0.551934870295048      4.611793665745885
H       0.708762688279660      1.051003934442703     -3.296112404032757
C       0.430862522368243      0.035070345082996     -1.409956480436565
C       0.723061448949646      0.039241917085681     -2.880248863802240
C       0.498957947464977     -1.063813250021606      0.742921625791504
