32

H      -0.778575847218707      1.340759620317761     -3.376927459563053
H      -0.548240995869496     -2.177986790215950     -0.546294411976457
H      -1.206473916202135      0.354484617411743      1.994751056508523
H      -0.122470580943128     -0.195696093041450     -3.415593661765880
H      -2.223363295908305      0.541381547501879     -1.575025015023857
H      -2.343552374371732     -0.290834902469600     -0.038071949096603
H      -1.808723589071442      1.381147331199392     -0.064410514369635
H      -1.064012474487991     -1.560408511352898     -2.105708857463600
H      -1.033087437428721     -1.339295778216863      1.507227938725482
H       1.526438290359366      0.672019773246827     -1.693089333934783
H       1.306351704550629     -2.012978536985222      0.652529893084155
H       2.343552374371733     -0.802654482177652      1.428750488665736
H       2.241875510977483     -0.858597385055015     -0.314813446625570
H       1.369949152402842      1.437606766539411      2.005664720031501
H       0.258208850412869      2.177986790215951      0.850454255274363
H       1.870664398388280      1.615193502925867      0.352227549118850
C      -1.743449688250234      0.430466494769217     -0.594478303745842
H       0.904305809621125     -1.522148593222279      2.894749373948537
C      -0.304173751189811     -1.452008966829756     -1.323513152824723
H       0.808805189226740      1.130056800038674     -3.752428869554712
C      -0.295753538176849     -0.033033948477582     -0.746858711782518
C      -0.486339884056971     -0.428364351695276      1.753218017206565
H      -0.424694284315728     -1.065814693868612      3.752428869554711
H       0.655507556463567     -1.746354357092967     -1.754741010833306
H       0.322376313225266      1.961333678932945     -1.447682076008733
C       0.462278666898271      0.908068866325513     -1.697437824961878
C       1.653978420881948     -0.981268134609807      0.601206504501148
C       1.005661790607336      1.388366303034755      0.973867117368614
C       0.477796575002296     -0.006210037021777      0.639234788465849
N       0.239495406069134     -0.746004983515968      3.023786635299365
N       0.051425453298364      0.781374854739878     -3.139778300135220
H       0.766371080349671      0.058414034641483      3.405672494974985
