50

H      -1.879328219960550      0.412799239612798     -7.064521479343476
H       0.884824519438128     -0.138361519886142      5.514526941191804
H      -3.751533341997694      0.256816784545381     -5.637539648530513
H      -2.753103613922217      1.660644093556491     -5.214061619742921
H      -2.489355952662511     -1.083025205082577     -3.864314582266783
N       2.734894249105233      0.658520608131010      6.069572518833745
N      -1.730061767169756      0.057439729761226     -6.104053755938181
H       1.300907373161234     -1.673424645954849      2.884470950858187
H       0.101144726024888     -0.459718649601778      3.302313304565395
H      -1.658156815231363     -0.522066860657429      2.152799931390591
H       1.995320244079220     -0.471966003528272      0.914712394277725
H       1.312151901964199      0.473831942097064     -2.515927654293050
H      -0.773508290217944      0.315230958182112     -5.807551790297444
H       2.134955177793824      0.514903936192737     -0.964557147117977
H      -1.758505900571185     -0.975408420146285     -6.147915337371677
H       1.494041702206431     -1.015144002281499     -1.595100707712632
H       0.526763300661040     -2.307362428514823     -0.188122317357857
H      -0.270803941685598     -2.376350161075760      1.390284731123652
H      -1.213822296963341      1.140828241754363      1.778383497167573
H      -2.269868579481160      0.228892171190279      0.692071413394652
H       1.250734640813629      1.019571938575394      1.468389221732663
H       0.064634796573689      2.376350161075760     -1.623754101541094
H       2.566568494915661      0.450601001053903      7.064521479343476
H      -1.229717199598410     -2.160067405256126     -0.069044011941937
H       2.248304487112053     -1.267843285275104      5.404109992483200
H       3.132041358258906     -0.053324412530029      3.413668518561911
H       3.751533341997694      0.528889748376277      5.897809895661421
H       0.541069186603314      2.266767983059453      0.066846353494459
H      -3.567807615469367      0.153169705948681     -3.249539701221986
H       1.933591477887811      1.223818603294597      3.637191442263234
H      -1.169437879901480      2.188141790594789     -0.374177573349568
H       2.494411236828416      1.652205513510847      5.900953914164056
H      -2.117028926211800     -0.242989427057431     -1.184697356124737
H      -0.571051994296848      0.689760961633884     -3.638858291860561
H      -1.742415606952006      1.670961752105687     -2.768783438868869
H      -0.933327781240179     -1.194687468576454     -2.060703922832786
C      -0.152940885126039     -0.362834813199118      0.579199732940237
C       1.111133299237784     -0.069144255133756      1.421253072092798
C       1.093536648340843     -0.595658584541688      2.857710632548191
C       2.099173620320668      0.141173328849979      3.738431140997550
C       1.928049947694255     -0.242271733079823      5.196880022503585
C      -0.047228102725729      0.352633681407938     -0.830475775398504
C      -0.287883315587433     -1.885776567061587      0.410983986146192
C      -0.164353249817735      1.879265110115989     -0.674787549521744
C      -1.389314103314282      0.152860943183406      1.337267118264501
C       1.300547256145563      0.059918871344685     -1.504628377716553
C      -1.178636618381461     -0.169108014645744     -1.751015071995313
C      -1.472785142873761      0.636353703572508     -3.013329639318867
C      -2.625665573708191      0.005027346410632     -3.793316391788823
C      -2.803342361990044      0.566212564094566     -5.190262553198754
