50

C       0.503922235771903     -0.431101711863462     -0.336723283245940
H      -1.045533257394315      3.237977796110111      5.063633157246590
N       0.743951856708483      3.384687020489237      6.144356102275532
H      -0.945387510099697     -1.787594089343821     -1.182790538208943
H      -0.999392298710933     -0.194547309320423     -1.914338934136909
H      -1.280027412209121     -1.726742075472994     -3.882325810776567
H      -0.561557010312117     -4.326740527876448     -5.607084560142663
H      -1.478559544758419     -2.944351867134397     -5.870254285033521
H       0.272394759187359      4.103271640949047      4.249063978388655
H       0.568590048688437      4.326740527876448      6.529350045265256
H       0.942071420960868     -0.620198201784893     -3.256221326729136
H       1.762260396405255      3.255659765393564      6.016561166647238
H       1.653338931325225     -2.226764153792249     -0.235560609135877
H       0.459327466805744      2.684399424535974      6.843701641843881
H      -0.651625538488232     -3.225785082604815     -3.203458499614938
H       0.305563883600117     -2.230685427424547      0.896096457843061
H       1.344100258893807      1.189108878835156     -1.532972870261336
H       2.302143055151465      0.790941715818353     -0.086398023092745
H       1.342192759134909     -2.086329285472200     -2.370371948634187
H      -1.241277323303601      1.802112606020564      2.858871252732136
H       1.451654939073862      0.900623681942383      1.747524147122077
H       2.332919305129870     -0.265663589539003     -1.484324435184840
H      -1.164453338504741      1.541820697436811     -1.072643628707345
H      -1.550233587742344      2.212387411740363      0.497894046036954
H       1.750968039910447     -1.263937744266034      1.223423834471102
H      -2.223378925120580      0.317281585438643      1.738099883360132
H       1.554897508923133      1.924258187700847      4.083475317076898
H      -1.474003850996537     -1.241138956480762      1.465378914332076
H       0.603961076738782     -1.604586920812618     -5.491736490579842
H      -0.164836437553060     -3.328882000796577     -6.843701641843882
H      -2.332919305129869     -0.421311774658601      0.138929754577527
H       0.165087018413789      1.067161985514884      4.748005744333501
H       1.294146936808648     -3.103469845655458     -4.846202114621636
H       0.057520074924462      2.439972860739739     -0.173751014654977
H       0.354917823964433     -0.199350888911827      2.562449991222149
C      -0.371674034043220      0.438728652155541      0.621101383630629
C      -0.764956474204723      1.733375319056544     -0.073718306670035
C      -0.151643784450079      1.869187017361617      2.762818730429242
C      -0.316888205113938     -0.964379339531137     -1.531361655649276
C      -0.352149556046667     -2.272992547998890     -3.669638246474975
H       0.054369945128848      2.808103814869280      2.236486425306795
C      -1.673696055356707     -0.275766686242786      1.002034378963730
C       1.683258107729685      0.376451954943220     -0.886807716801762
C       0.389211218609546      0.707638519249849      1.944712092192198
C       0.458785356058167      1.942645172415113      4.154380751437090
C       0.028649674503127      3.218631840668503      4.848647937682392
C       1.077498090845239     -1.604339723728418      0.436933039411093
N      -0.520056271898302     -3.327411377130067     -5.878349031064517
C       0.507607865290794     -1.467692055699761     -2.712439520883086
C       0.364850493379462     -2.539911570473954     -4.975235549956926
