20

H       1.471302734876040     -0.428568337962579      0.060994109446491
C      -0.438276202855151      0.449544094837734     -0.431165056832221
C      -0.402576401933312      0.003805316252148     -1.880726606504353
H       1.191480898268937     -0.645222854886912      3.708707195117542
H       2.282344088498342     -0.741885403170255      2.457144303130239
H       1.044830560454933     -1.877671040727211      2.585383291699294
H      -0.605945849331022     -0.072444356748170      2.303445552941584
H      -0.760069997918670     -1.023243374763723     -2.005230054807178
N      -1.284045082277874      0.877057359920975     -2.708868210738197
H       0.091924266359174     -1.491428732818535      0.356095996284973
C       0.401530458463019     -0.004870863598070      1.880518888994635
C       0.437142239657323     -0.451475128629385      0.431454827672484
H       0.758175477076393      1.022537394974799      2.004290748316357
H      -2.282344088498342      0.742789159434942     -2.457566024245637
H      -0.093170651925968      1.489667416957239     -0.355615245350490
H      -1.472716566946231      0.426676933480152     -0.061069631526074
H       0.605249083348586      0.070771094388435     -2.303000864991617
N       1.284205530804746     -0.876651668424723      2.709090503392698
H      -1.044074918465276      1.877671040727213     -2.583760033828435
H      -1.190745208569260      0.646962422624354     -3.708707195117541
