26

H      -1.098691025931421      1.080452206603957     -0.020118701059012
H      -1.949602222956816     -1.038627912682097     -0.884184413872203
H      -0.286162717484682     -1.008497072113286      1.098454103824777
N       2.522678640732238      0.790958165756484      3.472559706610996
H      -2.404844157985579      0.997704718310835     -2.379009538493281
H      -0.472241978535720     -1.317408613320286     -1.804633904736319
H      -0.941865162804895      0.582041633802631     -3.291770365481860
H      -3.515786904688637     -0.801805567097177     -3.169861889008559
H      -2.523377043030166     -0.517643138121105     -4.462500239312147
H      -2.139983732196721     -1.747404142810564     -3.396404514804782
C      -0.393364788403613      0.405213466673632     -0.523638121017562
C      -1.151682282133240     -0.531086680485878     -1.446398897762252
C      -1.730756188126048      0.179151222553206     -2.649234677007795
H       0.475686187439990      1.338079890986094      1.807953244133593
H       1.103059910188184     -1.049760847209263      0.010416931065913
H       2.140125075128767      1.747404142810563      3.413904818684106
H       1.954652811860722      1.064624449529979      0.888237881016243
H       3.515786904688637      0.805893385581483      3.171070836995355
H       2.527108617587198      0.503643812973531      4.462500239312146
H       0.939195966135472     -0.575791791889099      3.279111379501121
H       2.402766729634092     -0.985958701310825      2.364710895561764
H       0.289453124948665      1.034713413618063     -1.109589145514910
N      -2.521826813562434     -0.791141348285624     -3.468988316573312
C       1.730153377967488     -0.168540841024193      2.642006035621840
C       1.154593955067620      0.553762552720964      1.444589406035961
C       0.397166069946705     -0.376637506686886      0.515760990117851
