26

H       0.956277903073770     -1.952749045076594     -0.875387978491548
H       1.148337040456305      0.998155248567002      0.237482886822843
H      -1.630745729563979      0.673087784724553      1.458475002765196
H      -0.870413584435928      2.155462432644445      0.863629822940261
H       1.542845023547598     -0.467508623444717     -1.637897570604452
H       0.003893369418456      0.519917486903884      3.307632695360040
H       0.816966285679667      1.993369216514893      2.752758296307181
H      -1.052971939616000      3.281972121785197      3.247887515643301
H      -0.785590293490682     -2.152773916442867     -2.706374761271213
H      -0.882420034227539      2.246445107066906      4.542759336304826
H      -2.078060055645313      1.961137424873312      3.395532007894252
H      -1.182925087860312     -0.906569009546251     -0.334743973325726
H       0.712696238501453     -0.420620028703485      1.192362538521342
C      -0.356786575104493     -0.260800953326740     -0.659068408117452
C       0.303264388703274      0.371582862314638      0.555528035236643
C      -0.136973946549039      1.459622586364757      2.764980621301671
H       2.078060055645313     -1.883384109502708     -3.403922465257883
C      -0.670877659975809      1.203572643384703      1.373540029245117
N      -1.104295462160493      2.283563006490452      3.540032661918614
H       0.921369283243755     -2.272970326624566     -4.542759336304826
H       1.130368766712594     -3.281972121785197     -3.248840376432026
H      -0.174139756392416     -0.649474399994801     -3.411526560241857
C       0.095247337417431     -1.513020981961101     -2.796300695433604
C       0.643520888798388     -1.075429443042153     -1.459033384279746
N       1.133359650820404     -2.283313913307951     -3.538292915786602
H      -0.785854775860231      0.518886750628864     -1.299945352753902
