36

H      -2.647206573446329     -0.220445019410432      3.074601093181925
H      -1.785107057152848      0.997724946745462      1.374135221072527
H      -2.090185173700315     -2.079695934463183      1.539886887015974
H      -0.624261618223933     -2.455167154815054      2.432377249935288
H       0.360046878068834     -0.254000297634478      1.756802891171016
H       1.225379376306662      2.470754910281013     -2.174700810049268
H       1.669554617839079      0.685111035504299     -0.573921951268316
H      -0.148799153083165      1.619368796916486     -2.844411505624659
H       0.167981898301037      2.054156040655927      0.547871769314660
H       2.109007895872359      1.656488303676253     -4.146593008240545
H       2.647206573446329      0.369540096023560     -3.054059031501425
C       0.847834922401845      1.462420773652530     -2.398286512114100
H       1.634518841787376     -0.404895057329723     -5.156407154177993
C       1.759634675936517      0.868989239072423     -3.465454390640740
C      -1.269285663921865      0.444453404601294      0.580082056368351
C       0.688262263274674      0.686401984997442     -1.084910908655390
C      -0.349127227615477      1.409343087361258     -0.179951552256345
H       0.095124301671191     -0.674370662119006      4.082209184272718
H      -2.340498493969610     -1.715417423349092      3.969835374617149
H      -0.372460230306041     -2.470754910281014     -0.107159200634669
H       1.191311443744770     -1.829891153557193      0.367080858044139
H      -0.680429306014188     -0.801756397905256     -1.820184276023941
H       1.012211789947363     -1.303818381840482     -1.916676777187547
N      -0.850278133826128     -0.250530491576965      4.160379485216176
H       0.813235252149502     -1.015268746459645     -3.848308406763969
N       1.048173277921461     -0.130090282526181     -4.333660407368480
C       0.187999644219656     -1.532802460137499      0.043238406916704
C      -0.462061863657387     -0.704273770346377      1.170110083599735
C      -1.260767708347417     -1.618282326009290      2.100307432779725
C      -1.878432698386372     -0.962689608471058      3.321993506783582
C       0.283021757482630     -0.775424092881377     -1.284980644364158
H      -0.962219787266615      2.082651577998378     -0.799183500517918
H       0.180790054282429      0.277164368802687     -4.725271176196673
H      -2.053833527276191      0.049286074279916     -0.088536770976646
H      -1.121167007350198     -0.261758751726957      5.156407154177992
H      -0.771758294060888      0.756377672530952      3.888371635654097
