36

H      -0.533427179060520     -0.962605148554825     -1.473719946238653
C       0.443159306165711     -0.522103291469366     -1.206264339182997
C       0.318078133716325      1.001116652462819     -1.090240986162244
C       0.960842946207290     -1.152979055326534      0.085690318515002
H      -1.205253621738636      2.135804614669115     -0.004052717599081
H      -1.527650921023118      0.550548535680269      1.860877890567274
H      -1.746911854976955     -0.328909727410270      0.346208676421933
H      -2.007262164262068     -1.267011214423150      3.294320157183900
H      -0.548548962887156     -1.105091042148265      5.340356867200266
H      -1.219471066536006     -2.729516491995211      3.924091765900578
H      -0.327664490616014      2.729516491995210     -2.201217946386347
H      -1.418436495640093      1.353345046614443     -2.347747588336614
H      -0.978147798733810     -2.617120537161535      1.461707289024842
N      -0.228933939699815     -0.938344772944129      4.364801450614961
H      -1.298774256806874      0.089006628020600     -4.279311585535821
C      -0.998740941915753      0.196764037965052      0.964309373232119
C      -0.416514716326958      1.402142679233630      0.218547683779869
C      -1.040059083236215     -1.772797948684596      3.416447799014763
C      -0.351851012045708      1.633367775391577     -2.314430417711009
H       0.568771639875068     -2.642291460832066      2.301395968924134
N      -0.252803390843943      0.101996710529709     -4.335976587228586
H       0.789901786653830     -1.168353836793087      4.315412994269342
H      -0.323828536438068      0.087153208264214      4.179309190576414
H       0.112077806442908      2.150911188022232     -4.361595090355554
H       0.272732474341945      1.918816343920724      0.905050377529157
H       0.811021221900175     -0.195180971203583      2.012902755445517
H       0.977306734049888     -2.247656762137021     -0.031335566248231
H       2.007262164262068     -0.847846595645355      0.233741490128471
H       0.099583606778053     -0.803361567635433     -3.955168192909255
H       1.130295901953730     -0.791883034953092     -2.022261575445186
H       1.342842524096984      1.402911357580082     -1.046399612674044
H       1.381910880117315      1.195610366539567     -3.590071634823206
H       0.003731637129447      0.110663794016985     -5.340356867200265
C       0.293105179250343      1.326296459042130     -3.663828086650930
C      -0.313608327212733     -2.012659933722248      2.101190817119009
C       0.137373102361916     -0.759950182992709      1.343449053168649
