46

H       5.447490817860928      1.911099868228235      8.381005254941700
H       6.811584048841919      1.085235368339544      7.638469919882255
H       5.634766404016154      6.740374249684121      7.671392204894724
H       7.500435247430036      1.159172156375271      9.895305223669096
H       4.267716284430386      7.358314101616898      8.602460684605893
H       5.170380683163580      0.747041950245399      5.832762227759590
H       3.718152246004872      1.172613404278721      6.726197117751243
H       5.605082226236525      2.119247441526670     10.827084932394197
H       4.260648409571811      6.181704734349800      5.596712850700557
H       2.752484247352028      6.665346788803177      6.394046328349511
H       4.642350446374084      0.788298995530721     10.620529026604840
H       2.368566911448904      0.463741383661467      4.602815858343222
H       3.878233225089178      0.236545748239777      3.906189019414403
H       5.928871294079809      0.722418897313711     11.706172559693195
H       2.703118474285719      6.809865885509237      3.960373088344777
H       6.697903442069372      7.346089909563069      9.931885726714471
C       3.621392899050690      7.033562361584554      5.839545089563988
C       4.396773823247453      0.342731104802173      6.499606428295507
C       5.033409177445766      7.639050616316981      7.865679238001178
C       5.980824463845535      0.950351886380077      8.339149433732901
C       6.556435512173027      0.639538616089801      9.710732420954708
N       5.620804140188988      1.083270646581597     10.790203407891978
N       3.103482938655200      7.563708580183884      4.538860343096658
H       7.197229054914404      2.539370819223671      5.077147104723608
H       0.667941680703310      6.056051216952148      7.402954759136070
H       0.521860773706148      3.143094343465582      6.492153880420115
H       1.159499409102875      4.495621772368395      5.582437465612298
H       6.188320600852804      4.086074520175302      6.794863414054087
H       7.569693923844388      4.859757208640485      8.605083465696547
H       2.635069677721797      4.605134422760646      7.975139023479678
H       1.546584936250113      3.330845447042944      8.500555376847482
H       8.614708072380495      4.825485144345780     10.727573733817792
H       6.820064412417041      5.401080343569459      5.777492527665573
H       7.361417079292520      3.890955651861721      4.106075449735043
H       1.930660950922586      6.023165177438065      9.917744385906087
H       2.357216731721261      3.180189052197949     10.678775953904273
H       5.840373825678985      3.422512189049213      4.646841771869900
H       2.521531529873346      4.505792960675548     11.701250974001526
H       3.562662232607334      4.304635400526381     10.432600706108211
C       6.988413831298225      4.369308605118160      6.102626668968699
C       1.635101870796927      4.970685098121663      9.862276212078298
C       1.660710093388140      4.422690152154352      8.448964244029517
C       8.499703320181599      4.947223566993260      8.029153068950791
C       8.354280706064182      4.177124567177938      6.721909691887549
N       6.840617495865965      3.498576443997618      4.901623255989625
N       2.569916822437142      4.191890740587157     10.721924711373724
