16

H       3.798886110272897      0.123460582871372      1.032858095717452
H       7.190542807380138      2.253123985737191     19.853366968465465
H       4.424102596284401      9.242991844810099     19.463780224597613
H       5.786198703930895      1.756561295339190     17.972897779932794
H       5.725527221957956      8.210521151775520     19.552038077543415
H       5.799815471690534      3.358682413710162     19.760451003154440
C       6.106453396335982      2.328554288676246     19.946025606926497
N       5.458418057500329      9.204562518233875     19.432644263269733
H       2.084603533865460      5.956551333842481     17.906099360965118
H       3.471335741248500      5.347621720146062     19.777219805858575
H       2.127774524357648      4.202489759856521     19.547653513168260
H       7.694176095780396      3.573753678679919      1.499747957877989
H       1.985710550366999      7.145703642858456     19.078793281324273
H       8.375617687975831      6.061877711791519     19.442699104524099
C       2.389265714102254      5.222764445871204     19.831669194502485
N       9.409963339017585      6.134326209815407     19.427634503408704
