16

H       5.080427302218800      7.406932853000658     21.197828013624516
H       3.278485357417133      0.152491416408753     22.078363134277037
H       5.070005437739854      7.405922276878833     22.987396181398548
H       4.409820587257939      1.066779226491809     21.255788403962672
H       4.400839372732840      1.066004845846870     22.914081991323897
H       6.244298487791805      8.422689421499692     22.099969890759162
C       5.238280089103561      8.004364511241212     22.093932889800879
N       4.261950084832741      0.472566240723783     22.083858135346976
H       7.586555156958067      4.144458072039577     22.100446486845470
H       0.771935293761181      5.548693640853861     21.176863643168911
H       0.761261824581659      5.548614617272560     22.966440810877636
H       8.717925504397158      3.230481277560131     21.277531170990198
H       1.935545352558643      4.532223460632887     22.078545997732242
H       8.708688379577758      3.230356477975941     22.935792334689705
C       0.929592899592987      4.950693826730640     22.072579929986862
N       8.569985415517994      3.824283505415932     22.105905911353045
