82

H       8.130226182234166      3.041023062955784     13.483483487966486
H       0.544489759507891      5.836891426459122     14.143438277378591
H       0.723916291783459      4.937937107389911      3.696610569950055
H       7.156400026835822      4.509439127551403     13.524011719491584
H       0.121560461674912      5.560306466375497     11.818413925145569
H       0.400649237581508      5.791024486863034      7.160542846045103
H       1.540314984806461      4.383973864772597     14.093605859354764
H       7.774611332037167      4.780396751779839     16.022562969145543
H       1.023794887108076      4.057348454386431     11.757428581556139
H       5.805673046343289      4.403854140721053      9.875912726667371
H       5.837078536535631      4.404799370735109     11.639769683281584
H       7.028473027296378      2.147611138075027      9.869312671963089
H       8.575723722221804      1.978930822451242     10.717598758892088
H       7.069007988882809      2.160174844417017     11.633167692860004
H       0.284459438617615      3.408554333233471     16.001040501079739
H       0.921610964189076      5.041828043785140     17.617603054404615
H       0.972353928817807      6.255928739448277     16.469848452461200
H       2.090142423342915      5.002579291774399     16.424197271515354
H       0.977334205651261      4.046980540813840      9.548131233642220
H       7.044660225407766      4.467954703774222      7.932913988103762
H       1.910051973882849      4.912435986131163      4.873155811193024
H       0.068591346570842      5.546133638266511      9.502298044476978
H       1.408979950626307      4.347351451737261      7.211144616485058
H       0.111708864813012      3.328134422630883      5.353784316872090
H       7.602102050076598      4.700643974456758      5.388827421152208
H       0.794930742881439      6.166369687849224      4.824791306736273
H       6.509098594982369      5.779161233715226     10.744356018217871
H       8.023337378913784      3.001845554858207      7.960277111091434
C       7.604860314198978      2.486749189940112     10.736114796088327
C       7.777622330697309      4.007426382752280     10.722100366015608
C       6.404902937017047      4.687846868464868     10.747223800367813
C       8.629541522458679      4.467804114331496     11.919876094423683
C       8.166936821514676      4.127471312959206     13.331696747981303
C       0.523794603889430      4.748615663310974     14.295795852622422
C       8.577129952854035      4.452450685901086      9.483395581697275
C       0.384631941797233      4.700067290925807      7.028535082983621
C       8.062376140079520      4.090461465502879      8.094547356364796
C       0.174878707884657      4.465912135212994     15.741563399554433
C       8.623830993541024      4.390204114442966      5.626874962888728
N       0.917126307674700      5.147227098545216      4.685889897801911
N       1.099610680531164      5.239019439249165     16.623252058023034
H       4.879993108627476      7.292455243045156     14.164172042216949
H       4.585125716466988      1.030571200929446     15.992460791921866
H       3.467997755615186      8.345202343116854     15.998170840514586
H       5.228264258853753      8.100204472059053     17.633368916421290
H       6.400273945528713      8.140197963615563     16.443270004380114
H       5.287102669593732      6.882853224045028     16.489429239625014
H       4.368841002983598      7.488297869578543      9.535222210962996
H       3.722307678953255      1.310167946742662      7.893065050448573
H       2.727555310103857      8.549217252531797      7.917768730409475
H       5.284305208596869      0.289404535179762      9.531499307258239
H       3.815175833952865      1.373140730888792     13.421692302755796
H       4.271825077161055      2.386406265984466     10.629536121580099
H       2.724047033050212      2.203367569605492      9.785083340646828
H       1.532053753508787      8.678574420472392     11.626829945183536
H       2.197097838328919      7.286519692741531     10.754143873891850
H       1.493375879001014      8.647557033885642      9.863390300063063
H       2.764995755037440      2.227980517464162     11.548882207272747
H       5.030966773365880      8.010892992448746      3.715194732930408
H       5.093427820384060      6.790785837334149      4.852662183082441
H       6.214019162008387      8.040347436527048      4.894625701690823
H       5.853292666898971      0.065540383608036     14.089482788213662
H       3.288050529742046      8.274480168690760      5.365989469039731
H       4.425557009357410      0.943530000711690      5.340372918710983
H       5.710074673033061      8.613461205604400      7.224699651885380
H       4.675728857233271      7.187710925702488      7.189341562828285
H       5.333445590302654      0.334379908976805     11.742073106754734
H       4.436517645898309      7.524126958134571     11.847571793444988
H       2.854325459699666      8.591742211178156     13.506756656553744
C       2.095511684114220      8.377953404261735     10.737300247504290
C       4.311099602746094      8.578275921150748      5.606901204372649
C       4.679862371707325      8.277105926375722      7.043950612614422
C       4.842347402774840      8.381283624769763     14.309192210526065
C       3.860744991658876      0.284626286728529     13.288100762245755
C       3.299834306938326      1.881282788772667     10.658760937078961
C       3.469141537943773      0.360246475047713     10.676499544534375
C       4.265059285072409      8.581308273936875      9.463449032958062
C       4.323816771699772      8.617377864748844     11.899376639772166
C       3.749351619948410      0.224299104338090      8.050555964814308
C       4.484636103872143      8.666213886731986     15.752506113849895
N       5.220594228825213      7.808491998037270      4.706572955325188
N       5.410053298729464      7.900612398337587     16.640150860068935
