48

H       3.136354795425597      1.083156525253526      8.738853847158536
H       3.658013851690728      7.140919936284828     10.106715616718805
H       3.786211551122109      0.011901625634094     10.833167414077733
H       2.303142985794141      8.115434674646178     10.245453647612230
H       4.854053040766107      1.545204910970737      4.733252806749175
H       5.588603486021316      7.891189040714437      8.695432864432647
H       5.526522393831539      0.879505669985693      9.373280268403867
H       5.066828073990968      1.839313949481409      7.126584930760880
H       5.374110913981145      7.602787933745864      6.101189742578069
H       1.944143785596199      7.792097035733095      7.722437146295579
H       3.443988443120187      6.846743438484770      7.713121857984105
H       2.921691150463779      0.794560342738644      6.143964967734870
H       4.724507946385770      0.038779231409815      4.007020623830098
H       6.566475362386985      0.893362436529462      7.117229599874427
H       2.984220248287981      7.806001008868471      5.466527679592689
H       6.207559506131960      0.568296033915686      4.593921570547657
C       3.619101259653079      0.095977741532945      8.730307659678955
C       3.032617923138686      7.862335840093967      7.624197690756650
C       3.387996331646049      8.441311206681533      6.260766520556967
C       5.477935255766527      0.823600966763873      7.215560320851406
C       5.122533248789673      0.244533092165966      8.578910944535991
C       4.891398090698288      8.589983677207758      6.109497768195930
N       5.184406416742283      0.563064114094801      4.771597015371274
N       3.326415360193223      8.122611473236814     10.068223049044619
H       1.829160331009610      3.780041321182371      4.681336460001570
H       0.996338180056978      5.384088650638302      6.185646263047516
H       0.690859440504889      2.514648403774983      7.218619351678902
H       7.297627474437061      3.556127386826846      6.063675999186342
H       7.358858295822860      5.177885953485939      5.381036355408646
H       6.682966554511706      4.883144606961414     10.161282196353520
H       8.037429163934688      5.857554523926892     10.019096921178557
H       6.321574538929103      5.198962167296261      7.638092455910207
H       8.165761438882541      4.352925628332923     10.749072348544463
H       7.514956347515782      3.275824204424378      8.658562208536289
H       7.821101365273299      6.144731098957300      7.624139635223010
H       1.152744320969171      3.481506529384855      9.462060506823752
H       0.345777758161331      4.308123087195311      4.094293475595548
H       0.475973679349407      2.802987913842565      4.823306532453902
H       1.214100695665646      5.103122595370416      8.779353635635426
H       2.190180577658168      3.461085087453544      7.204901616491707
C       7.997222767975259      4.263243790782773      8.646667443894110
C       7.409907255422489      5.128764045451236      7.538846917886381
C       7.763973517097867      4.545509652478049      6.176914354652900
C       0.514394628687502      4.396538484246411      6.196631603337374
C       0.747629537253268      4.113837920940174      8.666146409481222
C       1.101761877255759      3.530728117088765      7.304155982685161
N       0.806107983227427      3.785321454576670      4.859553429419318
N       7.706061716562747      4.875654504689389      9.983404945361439
