84

H       3.013368659745987      3.986169873882669     10.808655124184529
H       2.080064406041100      2.487854532487956     13.067066595805224
H       1.633825453977288      4.960688596374647     11.293828444255878
H       1.777744718266160      1.969228564552601     10.778626508156789
H       6.226878956044077      4.762459222520880      4.364544203556997
H       7.416785399664779      5.953562747440446      4.246700767392420
H       1.298222968201671      4.231472058901045      4.325658284435651
H       0.031986237042429      3.012767982674051      4.543996825116713
H       0.634303262595615      5.299723311424397      6.502962869937118
H       7.223201377553409      4.102195096052885      6.649954185841876
H       2.218938309921215      2.489251537878788      8.634406612653388
H       2.385783833725046      3.597830972366433      6.549885961164394
H       7.226436063160673      4.812471337110999      3.051320415391111
H       2.458950765406374      5.008937756221787      8.741597474347131
H       0.744794206703760      5.093233982708155      9.116782174606652
H       1.206211652634534      2.297187990769285      6.453448895532253
H       0.490082324696821      1.776059826449367     12.839208090850128
H       7.087297182613299      2.826696228305738      8.279347176261012
H       7.083476034736782      1.999531739563971     10.801348245683759
H       7.169771901250772      3.723091794441129     10.477597682163157
H       0.177659986957480      1.396138613729700      8.747037931370462
H       1.205921062959823      4.656748182610799     13.541707566742847
H       0.443778610133101      2.941234604313593     16.576671273347142
H       7.539800778435861      4.354628086546454     12.696151105965612
H       1.708740989041629      3.020206295290749     15.492410820605526
H       0.661643635611071      1.734543468742866     15.449110152091835
H       6.772195285689717      2.906958825493610     14.492028251546429
H       7.356406739747669      4.435842731223695     15.166902211463459
C       0.459098469434175      3.872967808764300     13.364221822303314
C       7.713195179981436      2.777488739035319     10.355228358669164
C       0.092891149741407      2.478755787467688      8.915029673367377
C       0.323495073984063      4.038877538878931      4.781068615113922
C       0.365434463322488      4.257617751882664      6.280680147417233
C       1.377990118732614      3.154849219656373      8.401783349544402
C       1.629287221979493      4.444346751850401      9.184620678237266
C       1.931608124698142      4.113130286776559     10.663789054306966
C       1.199329385589874      2.835802338746713     11.124300844876363
C       1.086108331296997      2.680723976220878     12.641818503044133
C       1.386293675682657      3.293374271892430      6.882856531610997
C       7.657951569173643      3.534730792706631     14.630513299094247
N       7.202561564942684      4.953018088219959      4.067473859911411
N       0.713940896112135      2.761333770801752     15.598606286587771
H       2.983644078770956      0.543692889559999      9.255907957890246
H       3.245737921867421      6.893472713587654     10.733481742517640
H       5.431443394719448      5.338376036384143     10.661289622975508
H       4.506622454823003      6.010537771329585      8.619801762479259
H       6.197751103123321      6.207045590353063      8.191948173243704
H       3.370366059941741      6.183646598888286     12.936669090886346
H       4.671943816408620      5.006313774673986     12.934091391858143
H       5.410092084903233      5.997023334945748     15.210987501916325
H       3.898817341589284      5.068713600750884     15.192280118543064
H       3.956357963447549      0.272374930748002     15.402939411214087
H       2.600927053270156     -0.689047915427344     15.553476708012797
H       3.739583851150042     -0.625107083923311     16.769706452844211
H       6.384057078380647      6.765834378163685     13.012293255381314
H       6.903115593822337      6.279976838502932     10.442380048967721
H       3.236926709809780      0.017273387414500      3.407719057502923
H       3.429203178086447      6.499477644525417      4.099208453129676
H       2.155738750237837     -0.140334432702553      4.650948836493801
H       3.765995973180556      1.579783268343225      5.168287965528514
H       5.069340635368483      0.418864480349668      4.856924048499788
H       5.151347812360683      0.229487416937544     13.682931504368952
H       2.973675063780367      0.205085655501175      7.089332256415899
H       6.018856145790854      0.574593295383933      7.071227848538098
H       4.859481198660203      1.817217986077851      7.514451727810114
H       5.995686201260959      0.816921411230592      9.412800172299624
H       3.958055000466522      1.821798156481846      9.973694412868824
H       3.332058258770929      0.662269509942436     11.932747248954136
H       5.856062842980609      0.521985351976125     11.522207910307014
H       4.193271179992463      6.723967646896976      6.337317515995006
C       3.901421413212980      0.735164189712663      9.825874009535664
C       5.123321668816349      0.292617412558703      9.006892106733615
C       5.039991242110567      0.731220073404860      7.544131465287797
C       3.984546776108665      0.032304940435949      6.694355215276652
C       4.058423862237859      0.529048247044698      5.260948098551072
C       5.415177011496521      6.574789173970523      8.867890927130343
C       5.809705103129406      6.319304769270371     10.343326780607534
C       5.358011605719217      7.068234497190822     12.766265619119427
C       5.223470157915441     -0.367730804421467     11.647239554311586
C       3.821075812123855      0.022780942336079     11.186849067800365
C       4.394941330143947      6.005508516684553     13.291699869630850
C       4.391160850589682      5.962651995338445     14.809775015496541
N       3.621400380525192     -0.644976992732924     15.749265722912996
N       3.193823889550232      7.506158233937374      4.025427606716264
