16

H       2.716424457875227     -0.836288213995892     20.942745679663613
H       3.857600761017412     -0.911987700771715     19.733967648175025
H       3.925545683960051      5.753261883892865     20.604724115921190
H       4.415458915248082      0.904318157812857     21.199289338190759
H       4.383455746262045      0.775478784292418      0.618747908130228
H       5.650133851697981     -0.380626604656251     21.252198756619531
C       4.621234535856508     -0.122358090889541     21.501098900193611
N       3.755052105602730      6.750151478354355     20.379847208781275
H       0.566726998963622      3.661116658346727     19.469847268312719
H       0.745167312937120      4.610093242366201     20.809048896430582
H       6.796595676911108      3.110055222648830     21.142183873297920
H       7.867333419665023      1.742384626318469     20.703371085728694
H       1.831212084801672      3.382065422476210     20.528257799350282
H       0.252589068366681      3.690934209604855      0.301331096156046
C       7.816814088879490      2.726346694215372     21.168395420369329
N       0.833871535571881      3.640351982652783     20.462772577071522
