16

H       6.819532823152446      2.261644054433650     14.709684480483673
H       5.434629583005671      2.181036405877694     15.841312097058527
H       0.093736706201525      3.107841388323163     17.073869690450415
H      -1.206588196465489      3.038438674292511     18.129656305805185
H      -1.182209380773428      4.183714347359786     16.898512168243855
H       6.822837219191002      1.061406321655996     16.047985397575236
C       6.517350471649179      2.067370426624815     15.741927415705145
N      -0.945366870345583      3.200407256083231     17.139006721369700
H       4.083536516016307     -1.219157592034558     16.345275517283206
H       2.732474381642524     -0.122688717323806     16.801516015887522
H       2.474029480035248      5.124331530581361     16.237598662068059
H       1.255573609119261      6.194788446202040     16.689818032875177
H       2.689075424802161      6.082086719038224     17.572413245406658
H       2.599995616727571     -1.165850245713957     15.348438249233537
C       2.997572150492574     -1.089945609347065     16.363957671166638
N       2.289614138691073      6.073462014364924     16.614988292430194
