58

H       3.633316597092269      7.280008149727965      9.198830740753804
H       2.298213033446756      0.047203921923758      9.870836002471819
H       1.368567106517485      7.321245322573625      7.129265259281587
H       2.658430107445756      6.115745979963359      7.159595002172302
H       3.167081168637574      0.907588974475239      7.448467925475411
H       4.479376373242061     -0.258067202649266      7.639286001153820
H       6.240229734906971      0.777790936662165      2.878748961457357
H       1.998879312552494      5.319849801418591     11.641715875774594
H       2.182976673110169      6.981740319620570     11.642284316827229
H       3.441736566486179      5.982940505735050     11.095552400960001
H       0.783984404518368      6.316777786680792      9.801489624747726
H       5.090667926393174      0.859753696898396      1.657338466638608
H       5.076169230446022      2.038891142055295      2.842330714156265
H       3.293984042966781      0.370397771349254      3.084254551546987
H       4.446020483661153      7.367573467741327      2.671675528063952
H       5.436920834255814      0.324187623795959      5.300435727252941
H       4.159321406479299      1.542121909578327      5.128442852904969
H       3.601905408448113      6.770048875790826      4.988366293047849
H       2.421725799786837     -0.281038095107808      5.356968838451978
H       2.075751987741220      5.202968052232461      9.276968535216573
C       4.304472264939567      0.175495401659809      3.467185254300118
C       1.872220449147006      6.185120261711803      9.723113032561210
C       2.558783281314777      7.306114304212941      8.954817342900277
C       2.414694749902933      7.155579032526505      7.440587534925705
C       3.452395375854203     -0.140327653556257      7.250599866591388
C       3.443847219340931     -0.413626478719281      5.748080426113143
C       4.400642988939768      0.479271485791759      4.954511796851670
N       5.244877632316404      1.022801351377225      2.667922678620538
N       2.409047336575934      6.114116732569849     11.120186306375906
H       6.920066561313477      3.107566630818686      5.194697820624177
H       0.139371594831003      2.125810447794022      5.621870532712816
H       0.390921322646766      5.189406352475570      5.454899354372183
H       1.727957548063264      4.035759940816750      5.287725507117077
H       0.568999565957493      2.989662464847198      3.308009835947571
H       7.381424647299126      4.018382149382149      2.955367839395260
H       0.807651696262245      5.955119434438081      2.978014905189420
H       0.836557089442963      4.796096941643104      1.787664630097137
H       1.106113993771400      3.156581025176831      7.718444760062350
H       6.291605272866329      2.178073630618582      7.346309692842685
H       7.037247358599855      3.568701255029640      9.311429324083420
H       0.188405445959109      2.550158809920974     10.151851304853684
H       5.338506181353037      1.640694684425530      9.567676745231310
H       6.681678121991649      0.660696701195865     10.218738761209915
H       5.588913282166920      3.212270413179353     11.254768178535654
H       7.036868622334992      2.586889569768317     11.807640920554279
H       5.613349574052235      1.714571263801159     12.018124263180447
H       2.092709186048431      4.848407158886853      2.888403482215933
H      -0.447091320894974      1.266961183683092      8.089261272796131
H      -0.229169840252819      4.311374121445628      7.749553058116462
C       0.314269385629681      4.000069722962235      3.655119651607104
C       0.644519848838723      4.167013777068810      5.126607311970122
C       7.325775040143657      2.152505818272568      7.733377715551981
C       7.314184695304967      2.506565698414542      9.215741564730736
C      -0.143660303982750      3.141739327396397      5.943398088325735
C       0.043666373389924      3.284483478543050      7.448437620678683
C       6.333225022744598      1.684524390084376     10.031031595486541
N       1.058162956348144      4.958927220746590      2.786432997490714
N       6.134097717612573      2.338096837128949     11.364676275247264
