52

H       5.014647943123051      6.858174748267858      7.373152709929505
H       5.700699540169068      8.349493778677854      6.716012804129719
H       3.323083686077632      6.856351075136221      5.478692130442845
H       3.473190617520841      1.621434471464699      6.594624775363124
H       2.871276470843969      7.996037733404734      7.822269723829724
H       4.662795135302729      8.199408101518170      9.532370246333945
H       6.215324445485027      7.000458242515834      4.832981854753683
H       5.304590866687731      1.811536975934571      8.312494899951364
H       2.440492620297992      1.579144472462375      9.360080110298233
H       3.276128238493650      3.049989454228890      8.846060119859157
H       4.001516570510261      1.290986610317244     11.253314733733477
H       4.912015511883906      2.731404793432285     10.768245579539059
H       5.043514673045931      6.645582288583803      3.699314644716224
H       5.229897375449869      5.633920971343344      4.990610535038162
H       4.084370231938771      0.502347783699291      4.431378479564982
H       3.074511976575181      4.105301696681145     11.244858216210195
H       3.214254563516778      3.051431525665771     12.524812501456530
H       2.007262651008623      2.822000517639493     11.379745877712127
C       4.247774862284503      7.437100031771006      5.447554299996777
C       4.767167524500301      7.778742590019662      6.825283919907898
C       3.790427625238221      0.758219959361814      7.192652889152898
C       4.390836990071174      1.232062356169469      8.506473491709986
C       3.929046238819643      2.253499604182055     10.739547724081417
C       3.422614311916771      2.072262940818088      9.324890066884025
N       2.993257747758423      3.105741810380024     11.523001923196622
N       5.256506321110550      6.631790937331530      4.703249912513789
H       6.840345118961010      2.862069014967273      4.698686348858654
H       7.390451283197016      3.035358889145858      7.087280921218935
H       0.255908691722620      2.985358348383927      3.762547982650709
H       7.112864545765325      5.694552693319512      6.966591158377812
H       1.774923010635160      5.143494037933811      7.577662396633622
H       1.272401281241969      4.216990962329264      8.987536726892095
H       1.281888703038638      2.515000319003335      7.336222690727623
H       6.727097571094392      4.910878736559005      8.486872652253666
H       7.402250273956836      7.638269765799638      8.106504008617046
H       1.088624244757338      6.970795760672934      8.959796211647335
H       6.127510827445484      6.667412361622292     10.083224474343165
H       0.379799186860917      4.728980172513461      5.421815614023513
H       1.845143355591562      3.744265450940801      5.337058295672279
H       0.349685931618024      1.793023245712553      4.913972219071128
H       7.313348928836616      7.922343785247020     10.480020784781518
H       1.092476530382134      6.119673499798393     11.247542527816590
H       7.510274760932797      6.178201016907187     12.000838693179306
H      -0.114422166309519      4.985582588344274     11.047436799596145
C       0.631976834427347      3.366090587522327      7.103170790212819
C       7.193775780635355      6.913404157931533     10.075615324619102
C       0.006426295863423      6.800481433870334      8.892540329154727
C       7.513455629383041      5.473589152888567      7.961546997309724
C       0.941523550861833      4.566045049364376      8.003744991549716
C       0.792105860838534      3.739275936055465      5.636087889692577
N       0.061399634802152      5.988072575281995     11.251282159535306
N       0.073620349797202      2.781246224394363      4.753154129087256
