32

H       5.798844649714347      8.467920870138435     26.264175126127352
H       4.018013825563856      1.015518414123001     25.305795560667768
H       4.011793853252558      1.159544480491362     26.961278231032516
H       2.854754394498562      0.218781671636840     26.208002305162168
H       4.603120512599761      7.442287984704176     25.415097214140310
H       4.575468710852148      7.559483890000460     27.201951267186367
C       4.776571490249784      8.090069933754750     26.272706397969010
N       3.848600151468198      0.502690236338754     26.185463598367143
H       2.452405846669768      0.099242781753103     20.074128934741445
H       4.337744157448025      7.693764371576473     20.998884178519400
H       4.302380272125963      7.492010196371052     19.352950832372567
H       3.614897803549559      1.225953092550111     20.835342296172936
H       3.579879273144682      1.043057622993708     19.053802669261575
H       5.421810373113185      8.524819558952098     20.035080798898683
C       3.447694773903700      0.537135454956670     20.008684451056787
N       4.447270700793904      8.185616608403798     20.098846061504986
H       6.757788347912500      4.226087795325793     20.059509290325611
H       0.030486806019026      5.387887463902287     21.009132536838223
H      -0.004217793726556      5.586308135895868     19.362761708929735
H       1.117951358787554      4.558227824902581     20.047738662303789
H       7.923649988681903      3.104409617953309     20.823043560874172
H       7.888929800074001      3.284404853705266     19.041225024930252
C       7.754592360555077      3.791385668735401     19.995245740173669
N       0.142300924437127      4.894607778717510     20.110129223765586
H       1.496684207662259      4.625729208255010     26.277150731373045
H       8.324919073457817      3.325107416688292     25.297886436149223
H       8.318087110687152      3.188340755522197     26.954062732956945
H       7.161026942028039      4.125427957376156     26.196084861278827
H       0.300893985807901      5.647459814500975     25.423547117660366
H       0.272764028800959      5.537736262541507     27.210845437222748
C       0.474289512173308      5.003308785345338     26.283900198903716
N       8.154960301684820      3.841696604676714     26.175242249721492
