16

H       1.799487438452416      4.842548991171658     16.822079160739420
H       0.925920984197481      6.023698893948294     15.801298246295936
H       9.156873192075929      3.068428083079023     15.997869220462322
H       8.356829069964480      4.204606380363798     15.068977921437483
H       8.176663267053994      4.213292358762695     16.720384621824529
H       2.006370357134325      4.814527711179425     15.043276323279313
C       1.313728278473774      5.006674820221350     15.861175983646847
N       8.853935256070082      4.058617850984439     15.959236468280514
H       6.139928396460908      8.089866177952667     16.929854494579146
H       5.265392452248532      6.908715740827672     15.909880411782142
H       4.814765591906184      1.244169552037786     15.888460431634815
H       3.833469694712204      0.100199480132877     16.610913666537218
H       4.014143868934188      0.108330461668639     14.959599788621897
H       6.346714069153147      8.116559858020159     15.151016559471728
C       5.653995466198777      7.925460753859023     15.969091221040182
N       4.511095340668934      0.254184257549443     15.849956682561784
