40

H       3.841741155479651      1.036016424027832      3.964215903841398
H       5.196026464919528      8.027109934313746      4.180267376253279
H       3.454217632418433      6.341435865654923      4.055294795820134
H       4.274693292633042      7.117490537714375      6.342104429926236
H       3.335986402990626      7.429038616249352      2.802826200583207
H       3.778996097334868      0.974457672661369      8.385459016389341
H       5.128097491904486      7.963136598185948      8.598392231013454
H       5.961622084090124      0.631636686598666      6.230562168501457
H       4.709064061712939      1.893916238298857      6.229827435051854
H       5.633731209339251      1.553587633952131      9.769644419361176
H       2.246801141112409      7.547663007577591      4.054469540954497
H       5.524627681071546      2.651955708815093      8.516737951091411
H       6.725657405545653      1.441202714392588      8.513081419514902
H       3.021559281199851      8.378496909518807      6.340990297418042
C       4.924735413623814      0.855463956196886      6.533285443493852
C       4.792284852095898      0.724454100159475      8.043613613456886
C       4.182796047829442      8.277131244910974      4.524016164879963
C       4.056660637664073      8.153774797555689      6.033561235795957
N       5.729632268948818      1.653564009017130      8.745750681236180
N       3.244950164030106      7.339356583476564      3.827444473336173
H       1.404615940641159      6.671271080163407      8.497258968744061
H       6.380242383276727      3.495356983086466      3.975349623671091
H       7.437294918534939      3.344072003698131      2.693981853453595
H       7.577674038332953      2.284911612054563      3.974746923799831
H       8.081140488086236      5.231210446508316      4.086663380779544
H       1.065698240371212      3.886506507180463      3.862271010816908
H       7.143823560628371      4.293906841663506      6.230301887357522
H       8.397137549570012      3.033360261841066      6.226459171365656
H       0.652207963528039      5.982121091650783      6.150019207616675
H       0.928603215560033      3.733103936095899      8.241070645198329
H       7.938225733985150      5.067754853994426      8.465535258922667
H       2.609693456742340      5.473545238197441      8.491277042567781
H       1.492448347038617      5.548228396520759      9.722967561648939
H       1.911123508617073      4.720661575144665      6.142950315083120
C       0.869854776480546      4.938751383866735      6.435145033940531
C       8.317165401664765      4.212857572001450      4.422825021550458
C       0.699504026387162      4.761157989525364      7.932282650071369
C       8.181566011636477      4.073281837957979      5.926406030655984
N       7.376731281596166      3.283747392627067      3.729015579926178
N       1.602050296923394      5.664032696330544      8.700191209370058
