32

H       5.589057853564292      8.446645043889545     19.233350020506585
H       3.826199032207075      0.962990058606714     21.387259519387506
H       5.772612459797680      1.608579611497708     20.084335977374302
H       5.009863440909880      7.958149946395422     21.553186157431750
H       3.625542999368780      7.911199732175228     20.601875456170006
H       4.307816631728174      1.536814964692844     19.052132831299399
C       5.015592209874980      0.950921012941000     19.647067651054677
N       4.370226665749559      8.526962797231715     20.961590965276894
H       7.666366345422015      4.845261893711931     19.562361632828502
H       2.176076734462706      5.084134933218604     20.430593049608525
H       9.038077254183619      4.932200976461872     21.554909611485272
H       0.992846337927019      6.262633859656495     20.442334636806059
H       8.933698397665399      3.582539262574513     19.545456307212717
H       0.887716279744487      5.001168990026930     18.364709544398362
C       8.742476927593382      4.658526026646013     19.504783792672022
N       1.141152115005146      5.228499641521854     20.446335373805148
H       1.733323454133159      5.900973413153900     14.038223856783313
H       8.489396034171289      5.665014363037575     13.339510776957406
H       1.148820412923972      4.069453403069318     15.528312395773009
H       8.007108342808417      3.863577287750179     14.905033475017708
H       1.532840551511389      4.358281033509704     13.141824544340519
H       8.189237740324042      5.304329387653150     15.729931548935610
C       1.022604152137055      5.135778030632889     13.718412269575094
N       8.688379375600036      4.597778391297120     15.154168558224198
H       3.364043088863951      0.604372267617396     14.039586640510546
H       4.592851145290664      0.576624090294566     12.734742907963106
H       6.308883870831488      1.050136057304337     14.410441938517108
H       5.165269722352019      1.078120987348502     15.619999970638663
H       5.140260860754667      2.245663180300293     14.431484455148572
H       4.712216480236108      7.574223674246340     14.226328715116324
C       4.497399986294376      8.623711752002290     14.003931272824854
N       5.300875392199362      1.229800266264538     14.610728212605128
