32

H       7.817049640948037      3.322802106986595     26.683271430547972
H       0.918302277225092      4.509447964144237     27.807297339854301
H       6.619009577696915      3.798358600802825     27.756415859719386
H       0.150828314048528      4.885236867080444      0.343166332801253
H       7.887962470272354      2.835762953064791     28.266743440773222
H      -0.439278717230267      5.526958280047233     27.236481427962744
C      -0.139741313253846      4.743168225541306     27.929252756261072
N       7.635046482530330      3.622756859083818     27.653181706108555
H       4.353538855531367      7.672638786542435     21.243124948624303
H       4.429522058994380      7.849522171340848     22.887380597696914
H       2.466038250612391      0.236974733328643     21.546227993035696
H       5.399148139683133      8.788589822490746     21.906209788871450
H       3.480878445081061      1.315897693513023     20.543320156262347
H       3.534450360210827      1.438684109449306     22.330105819988223
C       3.414755591248991      0.766736576519838     21.480916352440229
N       4.459471334640336      8.365659187952609     21.995679032387105
H      -0.063758894765319      5.558634045552739     22.650186541900535
H       6.636478785644004      4.509764211574052     21.715589202978880
H       1.036740687253645      4.733675279518621     21.698278210179765
H       7.783133701803125      3.571700663584579     20.710877430152539
H       7.784704224880813      3.379066679105210     22.491307771796581
H      -0.073331715726654      5.769460826328004     21.004614789552022
C       7.633224086742427      4.072742273705654     21.665624873696046
N       0.060210366366485      5.071832637593124     21.749656979674707
H       3.606662579954114      1.126177252111996     26.588588626861544
H       5.480208088469372      8.626198860265580     27.998318231061102
H       2.559582118141043      0.309077967888155     27.602564658685896
H       3.679791655325789      1.385610079741752     28.223954597593146
H       4.315543967884708      7.479790659153512     27.269541381835904
H       4.874689411429440      7.532581530120821      0.434128251696743
C       4.489288754289123      8.182155852313265     28.083048948841494
N       3.528604349656228      0.663287808350862     27.506435301904492
