88

H       7.111175987706027      5.314406139927808     12.510419923433286
H       1.262636889522240      3.262500075538272      4.598117431025265
H       0.970136994851834      4.857898410838725      4.163993486672219
H       2.541368000590668      4.270258148492804      4.259555262792757
H       1.747804935741896      3.879130627123997     10.589802453799100
H      -0.608900219208188      3.882003325517803     13.502375777239115
H       2.158179612507249      5.576767793039445      6.203424700162581
H       4.973529889323141      3.960583284906064     12.710551578477405
H       5.941985595518132      2.621584786120124     13.375382053398534
H       6.111048301878586      4.138866496565651     10.566467506649817
H       0.572346626748091      6.213064234475059     10.291757933069816
H       0.720704955160300      2.433046515215433     10.680199742452954
H       0.988233008049119      3.444452982595239     12.109042088650693
H       0.368060674993980      5.838591303917918     12.000477232502140
H       7.627926201914886      6.383241749658801     10.482144664619351
H       7.038554659224980      2.692357086592212     10.938102244703991
H       6.641307960089772      4.016918689265796     15.155222953984788
H       4.980647741319371      4.121500543143650     15.043994101890883
H       5.924217840107288      5.378760850986342     14.485205480793580
H       7.263527630776797      6.216326555869315      8.192360805139565
H       5.972803797325014      5.185427936464557      8.829053887669234
H       6.482750726584332      5.008572630423769      7.157215364427036
H       7.922189510724116      1.950030573282575      8.663408153695555
H       6.291108901968954      2.646793115891500      8.713391934253851
H       1.104878057898306      5.151986063267840      8.694494607383964
H       1.128711412252478      3.418980947198879      8.417710068506029
H      -0.264746876651537      3.728859986612807      6.361966126570076
H      -0.218385787324916      5.475061047928467      6.592112408623076
H       2.373172398956496      3.859096194259618      6.580515819778756
H       7.187166494364559      2.614651820401387      7.199503032852856
C      -0.110845606119817      5.767416901229435     11.018897588957660
C      -0.407733380656001      4.297742400933492     10.677238944943388
C       0.833259310618899      3.464562011705809     11.026939678423231
C       7.064578692667923      3.787674611352226     10.985590891860664
C       7.114920528003439      4.220812764531769     12.447118157231017
C       5.912223027732659      3.704918197143837     13.213547694224692
C       7.877290699288662      4.148345453432043      8.580459065664895
C       6.845430224648184      5.204082135041773      8.169631132847520
C       0.513511532582098      4.318778651659231      8.299403523037661
C       0.323187007634452      4.544808641229777      6.800615321718620
C       7.288597344717832      2.759136034497350      8.279972767089806
C       1.690526262133708      4.589674366378031      6.136096827521021
N       1.607939731595192      4.235871760167461      4.692183272400214
N       5.858572285450990      4.347719575285201     14.559863691373309
H       3.353745406778117      1.247391255268389     12.951263095579126
H       0.978509541195461      1.342678734787267     13.343421918244877
H       0.767651520308013      8.117653509238016     12.976927318317788
H       1.877036803636959      7.529932395697434     14.960807872182484
H       0.598910594977679      0.044488438107848     15.292411967310539
H       2.170254173016084      0.632314325175556     15.385182390536093
H       4.154412097617742      2.129326140031778      8.496908352576574
H       2.567544435117736      1.963443497102700      9.255231948470229
H       2.766527968781274      1.581363610637673      7.547450310371853
H       2.421452248277072      6.675054451344252      8.886461961255078
H       2.031472089813420      0.903390382633405     10.851667972349196
H       1.392237957880353      8.120009042021463      8.969445969944621
H       2.151923281843473      7.678263642450204      7.452300630449177
H       4.748152855281959      6.932584089818004      8.063992653531818
H       5.672859274884861      8.383355989682563      8.426130869568615
H       3.407555131868781      7.997465135638467     13.198397598420248
H       5.138196890858225      8.245250133680219      3.839158551319819
H       6.807445261180937      8.192839637345724      6.283138374001795
H       5.839826367272999      6.852053322265916      5.621101198458162
H       4.666688804478200      1.051252124127398      6.472755002805951
H       3.745043066182713      8.109891320286362      6.056408190279847
H       6.798984993908629      8.346945689298613      3.948496569655924
H       5.858845923039349      1.112638394616465      4.501694564682829
H       4.520755647323199      1.973054386209557     10.787528547710266
H       5.812689891315094      0.938525646292383     10.159465341843934
H       5.299594679099596      0.771574997629594     11.831172839714656
H       5.495414293122316      6.895998479347261     10.287621520008932
H       4.600064516802413      6.869987084789121     11.802054002385578
H       3.865009288637655      6.198022559399823     10.341702765291872
H       2.014604359634646      7.666905609547875     11.145606562360694
C       4.938787710245498      0.961002529545962     10.816968835922976
C       5.868826541265075      7.935629836512273      5.780880567184714
C       1.448798505362329      0.357214560453603     13.414263427863615
C       2.816173499671650      0.313382189264524     12.749655512318467
C       4.498026215237667      7.009489123354784     10.721000719471524
C       3.907730984588274      8.396764738544002     10.414837091554078
C       2.307199745088826      7.704482089078793      8.534189734919320
C       2.626608810780251      0.075750599085017     11.252626103826763
C       3.248595773973493      1.514787191196314      8.527785590818445
C       4.719575242311729      8.027456496043888      8.010428735366860
C       4.665901243904782      8.452257197213513      6.546541575578622
C       3.547436159153277      0.046821099527757      8.874947800973212
N       5.922399336151552      0.081462459242824      4.428801231540176
N       1.532067211938496      0.008701570106291     14.859324984211378
