32

H       3.713683091752712      8.177589424458194     16.303660899178450
H       4.257918654625326      7.033383642296527     15.054591650414730
H       2.761672407493537      7.986589203383089     14.802362628641582
H       5.552532631109944      1.068991614916344     14.862395138353046
H       4.219993349161510      2.065058885433998     14.785203600530759
H       4.546423966788526      1.029213222797031     13.530667330251687
C       3.761966770670477      7.988154218159509     15.234316163524921
N       4.563341071471171      1.121348408351920     14.553551513287942
H       4.111576427145993      2.006505556433142     21.062969057867416
H       4.047890150689411      8.181763423107791     19.478663014996219
H       2.783508431307675      8.012444808260939     20.556046601543557
H       4.081957050290648      6.999877033094848     20.656370282642964
H       3.993946349923094      0.400896562668110      0.535694036834375
H       5.551553715261440      0.949752510894213     21.155784298858620
C       4.474749435584651      1.009201363062472     21.314583931650851
N       3.812452588401277      7.977612799685307     20.461625926690182
H       0.955892876118102      4.596808813687216     19.655022612043297
H       7.670153541492020      2.695358955699930     20.916908064992857
H       0.406936103638277      5.681616575514408     20.784847826635136
H       1.636381813284556      4.610704882763291     21.156379863468665
H       6.751468535488880      3.470590930815377      0.301682110167536
H       6.334145178189733      3.789305067778637     20.436437049880425
C       7.220235535215754      3.677306889734022     21.056406106605198
N       0.741181346747421      4.714273228252365     20.655702097293986
H       0.504628047697531      5.979916868504192     15.352585850510204
H       0.573143320521492      4.689112896829627     16.588833216887302
H       0.479405934343323      3.046788388802128     14.812156578838206
H       0.485206289799898      4.259799238732866     13.655525183384546
H       6.653680160329415      4.072636327819177     14.681145201142423
H       1.935118556628862      4.921616138716509     15.450828112179083
C       0.854551559923498      4.972701009426499     15.578156976964353
N       0.219814438929464      4.027920322625003     14.621817702113864
