34

H       5.440998747465279      0.081830800851920      5.726004281638769
H       4.135995008721716      1.220097035198624      6.132440451416786
H       2.814387871270487      0.428827204936463      4.140140984846208
H       3.866637870326100      6.364667726564545      5.861183692737559
H       4.048489136677452      7.369409239568517      3.658666539618141
H       5.684206047250459      0.850813544977763      3.437328690132720
H       4.522711476290817      2.089881442876109      3.650853118685371
H       5.348634090353396      7.327392598585731      7.692479370004010
H       4.099523582406976      6.303904783465025      8.102832162632200
H       3.910216817685079      7.963475249096454      8.355514352075415
H       4.358342994622438      1.004770413253081      2.399671185955069
H       2.638199489157083      7.508662494076140      6.458409360039036
C       3.873911633597140      0.158119394075478      4.250582735870188
C       4.347930932356955      0.228782136425621      5.698437286049029
C       3.718874662278968      7.344320524612119      6.337179484484869
N       4.667640184467001      1.087098964904720      3.387939611673269
N       4.306778229322978      7.242602849355712      7.708146079820647
H       1.543994802962988      3.981421969928624      5.655381883387378
H       6.876289875685197      3.622213021588592      6.830916109097878
H      -0.003976475621162      2.336818493591076      6.751020165994174
H       0.380610559515815      5.291010992527860      5.951358171168843
H       6.850823447071397      4.195763541081917      4.315223255052916
H       0.292605748266430      4.870890167319271      8.290748883870755
H       8.042807153249200      2.912522232017611      3.986352867575446
H       0.226659478238065      5.802242685155901      3.458245269484362
H       1.452942242962592      4.664456218541196      3.298107014261354
H       1.460222166928592      3.693131975319963      8.157962386555834
H       0.007898191137522      3.354984089862414      8.956225976003413
H       0.044951633288295      4.512739445104767      2.389213117815881
C       7.924959070170687      3.960675258854861      4.296305113454731
C       7.958970903025692      3.441435109334430      6.757312629432589
C       0.468922474288906      4.216600938582601      5.717971385944936
N       0.435194690756882      3.855473630207257      8.139584048738030
N       0.417449534929488      4.785282349941652      3.322834476642559
