16

H       5.405280507341276      8.504319772578462     20.150994168854485
H       2.452199777601119      0.276043148306765     20.158173330570072
H       3.609926538162931      1.167499778394635     20.970124772493744
H       4.199703714113678      7.513368191252373     19.276086414782526
H       3.594952555968001      1.153878564254296     19.310970994191226
H       4.218128985580688      7.527730616495959     21.066187246681277
C       4.388159474039950      8.113425849911474     20.164524162399495
N       3.443730983285463      0.571090371774374     20.146897144972858
H       6.744413511937983      4.210849388845891     20.149742668252415
H       1.112486909659096      4.680106512611126     20.174893987110732
H       7.899567031526362      3.328191900300540     20.974846296739329
H       7.892504101744898      3.327322328549050     19.315558727289968
H      -0.082006271700143      5.662971553988505     21.073600251210326
H      -0.088917294649282      5.661253704705344     19.283353685761323
C       0.094685577961586      5.069488079813598     20.178365474186464
N       7.736413367940300      3.917140497627803     20.145584027036019
