70

H       5.719207369462576      8.083788303795533      4.569860324803652
H       6.669775905558033      0.229961118449654     10.371512015628872
H       5.910581394450273      1.542389131293005      9.456105838011354
H       6.714832249634887      0.210216095968020      8.611109526807894
H       5.638029170960530      6.575993305137081      8.624906601820530
H       4.105237662143594      6.297917261206543      9.469059315420715
H       5.596412731572737      6.592186814200070     10.379440247775008
H       4.391384890706093      7.064582819737312      6.933507086273766
H       4.300447647745665      7.020085339699819     14.348314331071185
H       5.524967760907693      8.161947627393362     14.378349318526023
H       2.928979600477991      8.436554316365367      8.288951865749809
H       3.946406760667766      1.167229927859653      8.077943537095338
H       5.655068147047380      8.287906463961148      6.916831299961779
H       4.384022322444301      8.264325016444829      3.583261077606400
H       4.238639655713648      1.062629936592063      5.465608099777044
H       2.941584979112393      8.540099752673912      5.514224908825363
H       2.778805259181885      8.624271214412415     13.351323606191754
H       3.894875875670175      1.191942557147459     10.756935520248847
H       4.500531534740028      6.934590654316796      4.589160538421257
H       4.234568319697140      7.100398141361340     11.996301844137902
H       4.090604357689212      1.130921006524119     13.370280832596441
H       5.527789309960346      8.290975525375853     12.040277900459623
H       4.166923199829950      8.368399511882227     15.326453722615554
H       2.871477207003958      8.470642946920890     10.545697409834220
C       4.020155072194468      8.693356635953192      5.623925385094342
C       3.971507213508684      0.071853311670129      8.167944541505964
C       3.861147081910444      0.067781825721226     13.247799636146253
C       3.911009567821021      0.095394755288722     10.680873402092898
C       5.035915579713215      6.878394493210481      9.485643231220022
C       4.437981321074794      8.177604770914263     11.991596513545016
C       6.088063833269596      0.461025953664206      9.473075514159683
C       4.757120212579180      8.388477359775120      9.465061852403993
C       4.567386252832288      8.146609153448091      6.926770383948390
N       4.693043090136790      7.949825340338855      4.513582913432377
N       4.497273671482239      8.035643177580690     14.409886775558654
H       7.148919797754919      4.627375592872082     10.533451599078345
H       8.431331484712812      6.082433755163429     11.970474805669648
H       1.207457661684215      4.969133063082972     12.058692789852303
H       7.079261486648877      4.508793885767632     13.366624195287551
H       8.440180886948324      3.363305510764577     13.382834882544824
H       8.476934162626319      4.832915263318647     15.317045482739273
H       1.237132080413606      5.064719147126739     14.393682926120992
H      -0.013488945237635      6.177768849784361     14.366320206325424
H       8.285847753961646      3.234365736722997      8.121567501672471
H       0.064791509132528      6.015663203051204      6.933926605619568
H       1.362518549171528      4.828671745675839      6.947948222735142
H       7.248078808301146      4.475858935747755      5.500955573968479
H      -0.008464117023715      3.291140025459650      5.539669879168319
H       0.106902454720299      4.752068548411676      3.609394299280359
H       1.435237017227036      4.971294643829099      4.595850256977589
H       0.198161132571639      6.100561693706346      4.594054685502346
H       8.232772019396377      3.263908406077544     10.795366663008135
H       7.217510096981584      4.626952850082383      8.271585191542602
H       2.376948263438297      4.328388458359927     10.441565163361835
H       1.680609158141240      2.971502969755803      9.542198516889382
H       2.435188187762700      4.322353434213723      8.681343884431200
H       1.262887847781549      6.597961338108316      8.622657447213527
H       8.295184049814097      6.829606060235490      9.407464626720524
H       1.202711483021247      6.619119686411653     10.376927847231709
C       8.165205070129714      4.415846629926598     13.262936790830194
C       0.112412157294663      5.018186476636215     12.015627030584975
C       8.201309954806460      4.358280916103773     10.696224124171939
C       1.812587734051574      4.059487494312124      9.542648856727205
C       0.450429626132302      4.768539506895858      9.494897282863443
C       0.665141677207352      6.289191189105408      9.484175735984499
C       8.329404163735417      4.351563315251102      5.619707961454819
C       0.271160078468915      4.939371781237402      6.950868670982191
C       8.272187590209906      4.331907959837977      8.183356788013596
N       0.406953536621819      5.087831404127967      4.535318077047648
N       0.207006423988803      5.167502143205540     14.433063011675133
