16

H       1.565496638393874      0.416082840415650     15.558451178832579
H       2.105645260450342      1.693069396955131     16.705119672688401
H       0.830616647799484      0.527497109902616     17.184964627455173
H       3.773015998929051      7.855785095399926     16.756305224354140
H       2.569653698307467      6.752708514074785     17.148355803944899
H       3.059648684633141      7.929460851056731     18.242992110909086
C       1.750603385179236      0.662549149297905     16.607002570569545
N       2.860802938123562      7.754398174576475     17.245656537511525
H       5.700224258238271      3.131444329051856     16.466794055637248
H      -1.458834976027436      5.647704640980274     17.381697085995253
H      -0.990139528275610      4.197632126004597     18.104965830660458
H      -1.129608499709784      4.277679751212491     16.448428667693005
H       5.360170703192312      4.564900023245338     17.496178606121845
H       5.195767149622697      4.682669113651162     15.718017584108681
C       5.757360783439823      4.222171065471375     16.536199972038453
N      -1.550386841418240      4.616218046356553     17.334721573232560
