72

H       7.828267799015856      1.228382562694624      5.864661033455008
H       3.589966741684054      3.416165183174319      7.986849096476034
H       4.413605813002650      2.159557161150294      8.902839342569926
H       5.942082693177363      1.136128759056892      7.493688467673542
H       2.305106947081150      4.497447912753861      3.521002096438384
H       0.960896607694768      5.554025266271272      3.440394919922942
H       1.680674572178071      4.946154246798103      2.063797213511434
H      -0.061965492765717      3.508035467682917      2.114930462131085
H       7.671976416161536      4.492316414838236      3.287093612758399
H       0.867932038754196      4.281386815516454      5.798080534704762
H       0.815256321143158      2.511226231964249      5.631948668499043
H       1.130302021403451      2.613598445009076      3.087922182127876
H       7.571593219275591      2.747037535740021      3.205731343699868
H       7.676845259778241      5.521462587820416      5.949420753123139
H       5.792729211865275      5.433529906619087      7.545314644423118
H       5.732400315594415      5.805723197197327     11.476235687349517
H       6.749402512562737      4.721483765566001     12.276646402326477
H       5.100043669053579      4.544869676803464     12.410139334537517
H       6.758430676613425      4.135615370678002      9.982805343217377
H       5.918135287870325      2.876416726886192     10.906098577724082
H       3.694852707488643      3.978970988473084     10.374529052760746
H       4.537340671417748      5.193903581285838      9.414531476569397
C       7.875293502619320      3.381350785594496      5.782457151571185
C       4.515911070497018      3.193698549391582      8.542930676727231
C       6.308512917325838      2.100508455118037      7.133427637160453
C       7.371452765715719      2.152957483681453      6.228864318565781
C       0.493021918303262      3.506436512530131      3.059640334116461
C       7.292000549254216      4.553824837237996      6.280524674587214
C       6.225504654761425      4.501186834855799      7.176465303919519
C       4.582588626624266      4.143355393744044      9.743449504353485
C      -0.458857997477241      3.557827960690368      4.234513573189489
C       5.701253881036555      3.271993977166483      7.605861269276636
C       0.200230753261296      3.424794285361580      5.614011624337102
C       5.847645604884738      3.913897741830471     10.552954040694845
N       5.860511862930441      4.802415402523868     11.755510878906902
N       1.403817825738668      4.696850577346454      3.034694587519421
H       0.148286575453055      1.190810621610367      9.783072376432258
H      -0.744221152978227      7.432829620673592      8.490438771383250
H       0.054081983794188      6.173056948178700      9.422733766427424
H       1.538159594523647      5.101665077246263      8.002414026287028
H       3.418399061512467      5.136526484168858      6.362173603494319
H       2.439428851367799      8.191398863338678     10.484249866461266
H       0.709147145564179      0.465928280144170     12.808374455492634
H       1.252872507684026      1.786572695255876     11.885358662587768
H       2.343715456336105      0.759476504730033     12.652879716326597
H       1.620749456277889      6.899226569393607     11.380068476515936
H       1.450601673820859      1.382667102007880      7.939578783177897
H       3.341823925706414      1.412394973116904      6.352063946235592
H       6.739379513153603      0.465048696560648      3.343239812985896
H      -0.622049033905601      8.010338999389102     10.875880048391426
H       6.260365779204890      1.100959701599377      1.891107588816689
H       5.530327227154686      6.783004635852199      2.591677853491773
H       4.449581687951493      7.937862188573530      1.785606241133910
H       3.248306383933212      6.867460406932676      3.622968667956602
H       3.345622991439956      0.563157819021168      3.819072807765245
H       5.360272591856445      8.087565473821215      5.497903693558646
H       5.132334720732005      6.353305364375530      5.179152931049465
H       5.471519379137201      1.628040523886932      3.270484990182617
C       3.541199987747170      7.284801636354825      6.296138315721698
C       4.611504615628996      7.321153890796939      5.236580136549818
C       2.926371665276748      0.456524845345084      6.681128758845515
C       4.967487274937316      7.715678935097225      2.726522189586585
C       2.998306120555144      6.073229647661541      6.737569471423206
C       3.984904514586157      7.641614355664496      3.873355934956142
C       1.364942756147626      7.243195091579258      8.114964000237745
C       0.177463656842741      7.200268741220760      9.049997161541185
C       0.261800708077193      8.163115186735103     10.236902078806146
C       1.529600386082140      7.940736161816104     11.044074851673063
C       1.855795138922764      0.437321227822304      7.572056333394859
C       1.936119850897712      6.054069215872953      7.644312610362523
N       5.901623264759453      0.787130700787828      2.821898338118312
N       1.441503147157513      0.788373375185417     12.148592751618546
