48

H       1.547320437088696      3.126019768294274     11.123633131368759
H       1.122202293187847      1.916995320951841      8.950431346201858
H       1.653861071740349      2.207880662830573      6.582806193356693
H       7.262365840736038      4.656705756718134     10.812720851492454
H       6.299158413728703      3.202547176429692     10.534207856679959
H       6.548569116367783      5.588848722633458      8.701762746240952
H       7.064738652835906      5.858833169076209      6.306589519054005
H       1.872277307312087      3.809074944494146      4.671983847559678
H       0.885686589946083      5.281920087470977      4.634380986712550
H       7.600269728453785      2.541816955191257      4.008038015039278
H       0.129321488221257      3.735840654509834      3.037442342602716
H       6.635437543676678      3.918684867668551      4.025624494173787
H       0.427652821647616      3.433056611372251     -0.063830510726253
H       0.493427723473127      1.816117343390869     11.142986025593206
C       0.717973193522919      2.779737511422239      8.424634623505806
C       7.441760979388508      4.994118288091093      6.849593113094115
C       1.024422142596553      2.942561752765935      7.076295546253980
C       0.890928443798726      4.225160790039000      4.914438685015761
C       0.543270662936495      4.039628907443289      6.361255491703450
C       7.635527871605222      3.746057653376267      8.916733870674348
C       7.144128485335856      4.837151850256965      8.195356226419332
C       7.285448122869320      3.654147193005262     10.374639973816649
N       7.603113449892561      3.570825721651754      3.860316603805087
N       0.563547034176415      2.839345674661724     11.316636694628610
H       4.338959009010988      6.607473189541874      3.925767993859847
H       5.684858512399028      7.018199046779007     10.463501839658059
H       6.064533103146851      1.010612382870040      9.024819613864885
H       5.628658542150943      1.744630914125795      6.698900478200526
H       4.169842947849693      0.294876606869465      3.139977650991747
H       5.456873373387042      0.261792268309913      4.214366987457915
H       2.572728494611701      0.753073313606243      4.780599615256096
H       3.884521373838889      1.952380310433047      4.872128113081366
H       2.199611273587057      6.736720263140205      6.211320018163531
H       2.634896632178017      6.004833406350916      8.539668138440383
H       4.408607804570019      5.781813754095477     10.354195991600873
H       2.758017113779773     -0.127231589717457     11.342003045681189
H       3.881249864953606      1.106396477211832     11.313613954575157
H       4.062896194628951      0.316720628002882      0.049463551680439
C       3.619294978945200      0.906845339980035      5.056386664986476
C       3.875556718025626      0.504477486117696      6.476139945789931
C       3.055079748064550      7.130779594212562      6.755020231600085
C       3.295902124396900      6.724703527211570      8.061368889770964
C       4.362584147310233     -0.303835714071637      9.103957123999937
C       4.645509171424090      6.835199331711828     10.178192385318477
C       5.208291175412032      0.617167808906457      8.481668608945437
C       4.967994354070782      1.022628739279612      7.175061702686634
N       3.769462616072728      0.083606155149726     11.462485738725478
N       4.436619606614372      0.081938914990783      4.112085587307461
