32

H       0.516398752009061      3.431569213619656      0.236557342693542
H       8.043057710381218      4.879658183083425     18.777289331327236
H       1.551435085322448      5.163443601451499     19.529611504110207
H       1.335839839395101      3.709869191931440     18.749251109480777
H       7.434978770726705      3.100529712708066     20.320086161253084
H       7.136955303267877      4.656444624297916      0.245468202326460
C       8.156279398811845      3.865254306140752     20.607423476559529
N       0.855354776262003      4.443639754027230     19.299047018639811
H       3.881824415586705      0.170844369350346      0.667491508850114
H       4.612649226111926      1.683765893449763     20.607273948054711
H       4.464142579866234      6.896951038985960     19.477809766477481
H       4.704176748819240      0.313386269094720     18.631175986285978
H       3.263415966219583      0.038404903416083     19.451569248338021
H       5.932320148193623      0.483494208683055     20.687158776428031
C       4.851962391248406      0.622396029540435     20.680324002380857
N       4.286770589346351      7.915393635329999     19.435078450281260
H       4.422089716702190      1.614013080186748     14.007316712946047
H       2.949779634864472      0.765202124613196     14.574054047810122
H       4.296319192746576      6.739057574078362     14.734359793217923
H       4.286878629170338      7.292025133201969     13.170195556452628
H       4.337000783502433      0.984673746993407     15.677131186279208
H       5.637754307250729      7.541927906944744     14.148496628752405
C       4.037098364291284      0.819056205822930     14.642719733904350
N       4.602905343908937      7.514341701093789     14.130551534326486
H       7.144848265477373      4.577831843704002     14.047739924833351
H       8.291672958623479      3.984032342709372     16.094943454939230
H       0.649056266053646      4.370118346127690     13.093925110567413
H       0.520193774064367      5.610461359963294     14.221462020757365
H       1.866833552786898      3.719659551194308     15.059656704633358
H       0.430275530362173      2.685667409450646     14.802052256226750
C       0.778791281656458      3.688506875675278     15.053032879738920
N       8.182031949484108      4.616990284053761     14.092742672937247
