46

H       6.469812492815223      7.204799241869490      7.222289285251625
H       2.839876587828013      7.467797372385648      7.683632297366574
H       4.989973470963645      6.182283729447479      7.214974650412759
H       2.544868031047538      0.932481187864328      6.820637597651411
H       5.632537138293667      0.215862619185140      9.358278469201446
H       4.342858428721318      7.137043809022102      9.297137780661078
H       5.881811825422020      6.586344306085463      9.450601786666196
H       5.628335102331158      1.853882519911746      7.990626975448730
H       4.074530541942269      6.895807364433260      5.172386103870792
H       5.540956239127992      7.839462295362189      4.842160245313443
H       4.881663220676172      2.461247735551444      6.533444253963736
H       4.013538272786404      1.841834798320609      4.655316299771926
H       2.725813251846279      0.749964978611029      4.693631676029359
H       6.398670193253274      1.523321668553485      6.421202073489617
H       3.880062278784281      0.639670565598944      3.529069269091801
H       3.324060063268268      1.062108476196107      8.377026615469303
C       4.544110700531874      7.876381269650853      5.293357109371293
C       5.405312067735164      7.163147557845345      7.469806843541750
C       3.271575613241734      0.448907878719334      7.471265877483408
C       5.438880041641696      1.612934043063206      6.940376884605350
C       4.647599961147381      0.309924677631593      6.821260278313725
N       5.301558410363598      7.286968859697521      8.955869754708253
N       3.742647226833578      0.848865484673228      4.524714484631604
H       0.862945620637646      5.622376612064153      4.123440205681749
H       0.681048837347163      2.758094694941496      8.991716744102952
H       1.679740116292039      4.100719713278503      8.960053831045645
H       0.302147905421771      4.115332126299318      9.900674077908931
H       6.874404299805673      5.463883313339172      5.718035189454064
H       7.452868905292100      5.334281141433387      8.254458233490883
H       6.875741354634264      3.696905131303790      7.883523576858255
H       1.049523253293454      6.528718520624559      6.770332608362996
H       2.197345247887574      5.672240292704189      5.712542764733948
H       6.844569376355863      3.719615862033612      5.435969868399941
H       0.724693241844346      3.998105298857406      3.753292521337360
H       2.307608714929604      5.454020750265920      7.434952322562467
H       2.244556870085462      3.034967837094563      7.017697449861093
H       7.388201057347795      5.062640637806700      3.501840659050044
H       0.743679278479213      2.232299286089347      6.475560174620316
H       1.810542164143828      3.057162762694295      5.326723491443420
C       7.499878163157216      4.587853587563036      5.530210259253773
C       1.393237841041084      3.099771335962898      6.335316941810406
C       0.638210450659030      4.405302101879092      6.558087472011892
C       1.592670658411104      5.593400970367180      6.619729637666710
C       7.763807465122659      4.331303691898797      7.951922756613268
N       0.214954609136723      4.820193446473377      4.120970311647002
N       0.688625539183867      3.799436544292988      8.997215722609170
