64

H       5.579049363291888      4.760328997475777      5.319292877768050
H       0.272817951112633      2.517326140798688      2.800776564725876
H      -0.649678789185277      3.873517475108283      3.120437919977252
H       0.564229089420555      3.938135223764504      1.936502598409187
H       4.899159376437733      4.300126380340443     11.301343216703602
H       5.190286796671794      5.719480618130141     10.434516712373325
H      -2.169205953095181      4.400385813316869     11.719415816623666
H       3.174507276012677      4.718381800777252      9.672615358422592
H       4.019046447650016      3.172659894420763      9.423170628695789
H      -0.896573169726230      4.674419314865593      5.206436473203671
H       3.606026995035182      4.705025483797379      7.320927463946289
H      -1.922706486427708      3.598876701106871      9.633084185800945
H      -1.564526592474064      5.519661284161591      8.068636637303110
H       4.849086215250364      5.756048473985498      7.981607150146655
H      -0.117107779408355      3.474716551017102      7.918322529329446
H      -1.255680762141319      2.753316220564384      6.770751402157397
H       0.317585572019051      5.352026382085068      6.285237203833193
H       0.610711932051843      2.478242432922532      5.254846157257322
H       1.855113862843188      3.526585718770622      5.917312689245314
H       5.146211319018068      2.882489260512469      6.952483421126652
H       2.287974599273594      3.513626126202756      3.565861095266528
H       1.446813097082949      5.061134402866349      3.815678643321005
C       5.596139451923411      3.832728665044429      7.284640302001060
C       4.120369712178052      4.264103066808283      9.347343948494826
C      -0.133491590887808      4.402337618823981      5.952880343139085
C       0.945303384686682      3.529034326284612      5.296909334608943
C       1.342963785935215      3.969883569030702      3.890745319009147
C       6.305685145803273      4.519109504753709      6.115096720812121
C       4.516284903227030      4.704712963144980      7.940608665223752
C      -0.843495538737532      3.716184547680330      7.122318680649725
N       5.148222250349082      4.675858681427480     10.359772894433938
N       0.314898410369837      3.560814488527158      2.877447580708651
H       5.582153435486348      1.205363499716232      2.908280143490015
H       4.648182456728670      0.073598291184305      0.986457080342412
H      -0.828352415979950      0.912218968502658     11.869145809474043
H       2.688967931914365      6.458763035364779      6.142582334807936
H       6.300654393385543      7.323176264580626      1.366312157499551
H       5.239761255359413      6.089649895336757      1.786141119963825
H       6.250769115002770      7.159507323804153      3.705633150092062
H       3.963149602119132      6.203715946263546      3.972668546351702
H       3.261578210848002      0.173473045098306      3.062950974847570
H       4.156346010974735      1.506398339800659      4.967546462200324
H       4.919556308729648      7.578356737871693      5.892655206877180
H       1.918114802348690      0.359314826603786      5.194424408078677
H       1.315064090183492      6.729327912613329      8.265711407943941
H       2.781671902542076      1.777879577696841      7.092045891983597
H       3.553494977967365      7.877721413224871      8.039877902666561
H       0.551828953605297      0.658604959572748      7.343501977243531
H       2.235337108805317      0.555586435949564      9.917224181504118
H       1.510709543623977      2.029965945181137      9.264798306740229
H      -0.109916740393264      7.028950605374958     10.328002998802777
H      -0.777877974022109      1.074772460590832      9.529851242923915
H       0.848261787932260      0.658378790143797     11.994531045836354
H       0.232623303149043      2.145301401962172     11.448977990075599
C       4.084954369374596      7.298610581703949      3.911866996068845
C       0.085583448986858      0.610412486193429     10.026540509719183
C       1.387796577752571      0.935079624277603      9.324048144799210
C       4.067929786148096      0.408530778687757      5.052295686910931
C       1.403767742148566      7.827274828835324      8.182659086226979
C       2.708230372544003      0.679532673216170      7.181271413377223
C       2.763015675864354      7.557059807018081      6.053354046907683
C       5.387028533149015      7.623798423047057      3.209342109754596
N       5.376426921324299      7.126506616376394      1.805796785496264
N       0.096003680283109      1.108435927199797     11.429801054152605
