32

H       4.425033838844429      4.629144226861936     24.681718452103439
H       4.099604400250234      2.350950759141770     -0.099759752051452
H       4.357431582278950     -1.841954447175579     25.352663725013095
H       5.791894753804586     -3.412641145295200     26.481140650866877
H       4.138539709118095     -0.013677918830821      0.393558058071769
H       3.036141435477259     -2.305645879634676     26.282404768636635
C       4.709381730713997     -3.541222676064706     26.506931332676370
N       4.067432501667598     -2.219026345494670     26.268823994865272
H       0.627204277054390      1.890148127986248     18.542065780570976
H       0.598164168912156      2.099787527862286     20.193607971453616
H       7.550133126536996      0.343631919980509     19.588768443641854
H       0.472969393468937     -0.510606706137085     18.790946294996047
H       0.435095840159401     -0.272804435336552     20.565689162081721
H       1.897227833122245      1.318400702981372     19.471892892883716
C       8.624165671269591      0.162520090266623     19.633832600182608
N       0.870751890771341      1.450091777805002     19.440384540372172
H       8.277761028571767      4.030290745431321     -0.171115689545319
H       8.563452218429386     -0.145446772718913     25.276534027942176
H       1.633224456302016      1.616378692529424     25.822885037273593
H       8.455499693018764      6.415811028828581     -0.526992357569456
H       7.273673662429691      0.681778506103184     25.959085784873459
H       0.307397420985466      2.189748605141820     24.767578188070036
C       0.562567588027359      1.809276627363200     25.755811502386582
N       8.297731560250925      0.539230247924768     25.999855909289945
H       4.867588526396117      3.584369273199196     18.484469785849388
H       4.907064025540838      3.801818826487811     20.133030475131729
H       3.256933428173141      5.251559506024151     19.148144173603335
H       4.553649766633375     -2.675182458642019     20.938558252100208
H       4.548327690639907      5.953434038384015     18.123638011889653
H       6.126848179332523      4.447066352397083     19.180811761517749
C       4.315066965699296      5.504878467525046     19.087823205545135
N       5.110347447064972      4.253304410651885     19.228462318481704
