100

H       2.293186826402975      4.376251619235888      9.905758845032910
H       6.687717540285470      2.815596906661571      3.893103988530627
H       7.880252914582464      1.611046339018890      3.904704701587067
H       0.249093979052509      4.516221098902590      4.383260991572805
H       1.447463696378574      3.219697220033974      4.547091277783492
H       0.136935228923814      2.228697758433710      6.441746792609628
H       6.919285852949475      3.360114461684599      6.242344755861938
H       1.653961654061012      4.112530876066852      7.045074431849048
H       6.977952182852871      4.349480115783711      8.406343839546901
H       0.167969209773230      3.317198008200160      8.880408090049020
H       0.352744542987184      7.633301868101788      9.326022098558468
H       7.133350146848033      6.836780621792600      8.546216625173233
H       0.650835907569103      6.901480421325838      7.755251531017832
H       7.968247900322668      2.887703607485452      2.823239705295209
H       2.466082091733362      5.488581838337192      8.542067360099770
H       0.432990521908331      5.280817776953481      6.545289186738927
H       0.599821275589077      9.252539246767356     16.160727424454421
H       5.814610672227534      5.255395851768530     11.714127174397177
H       2.360338783874271      6.125580306154497     10.178730678827622
H       8.143445836248336      8.527630559760047     13.762180893676968
H       6.615652447793020      6.606361940278750     13.267823506203836
H       7.886560661478132      5.469694743669266     13.708894289885514
H       7.940815391424583      7.416607434930278     11.344149288415865
H       1.236494179917542      6.508335460212113     11.774963291118159
H       5.937953435796379      6.146351626807434     10.191454537994389
H       7.658360769479761      3.797587760357543     12.492355630200075
H       5.961370450072148      4.372999104128263     10.199542533818160
H       8.094165546970538      3.091664417033887     10.939835854717664
H       1.201727969510875      3.987513659896510     11.790415432378724
H       6.963046571353209      7.621366338418897     15.775872399639788
H       1.380127105488055      7.408843152769459     13.919993483792721
H       0.534667492112011      8.086017381598523     17.344453971436433
H       8.171702392507614      6.322859178822918     15.918542533089251
H       1.768091302375090      8.010809637928539     16.211703768830983
C       8.015608103684539      3.242415173417252      6.202675138978564
C       0.568253416435959      4.294041995649203      7.013664970145628
C       8.070951400749699      4.283634547485399      8.518799622193528
C       7.835496645253114      5.280189660615631     10.890943477827058
C       6.305623206864522      5.266075913422386     10.732709137240075
C       8.241354729932430      6.466274485264027     11.809245998609894
C       7.705753647435356      6.449534892624550     13.244997369136742
C       0.286003003251478      7.522000403660669     14.013912346053038
C       8.010463000633864      7.355275631564036     15.579298407447952
C       8.200624941518615      6.763785641044771      8.794311096258616
C       0.384657012475090      3.466893556592453      4.676636769151551
C       8.250038756143272      3.966097104112785     11.583519602214619
C       0.442997716820550      5.430859284187750      9.363910431153039
C       1.972251443178377      5.347718586043499      9.511905807933413
N       0.760501799445250      8.237019575192909     16.346389282758395
N       7.713220323734610      2.639566392877626      3.795367766513983
H       6.394436459810551      2.036617573471933      9.639722788677590
H       6.502463685785083      1.283188850394828      8.053127799764969
H       4.703054934548613      2.790928434489994      7.294813138442557
H       4.424826548221303      4.770008100986363     15.944329453689093
H       5.660936190579997      3.620065955648998     15.936316463369954
H       4.386300096445063      3.475440913193601     17.009317966586316
H       5.700708283343999      8.174931262466028      7.229960184541356
H       4.376140246460338      3.489386224251355      8.877984182977071
H       2.817608823004530      7.475210309352563      6.442184468040198
H       4.133313324808903      6.315820726867123      6.688890880289258
H       4.119901226325765      8.529765503381451      4.542455547607229
H       3.647175689514918      5.600147525070137      4.210151917034141
H       2.451823083880671      6.811916983387979      4.135002422119277
H       3.706418656145797      6.750624812980786      3.012637452439374
H       5.349704861257976      7.251974651695966      4.701926760640431
H       4.071194610509491      1.873247080843062     15.313828671715706
H       2.813300445787092      3.121908735838111     15.197137553212812
H       5.419250583156410      3.107815726408202     13.552568317848330
H       4.066833463971628      4.231638036832602     13.329832697007777
H       2.573338931367563      2.333481803008443     12.698220453303300
H       3.886454494868314      9.381849757882806     13.859851376429297
H       3.946498410711204      3.238684820798125     10.838467731237499
H       1.891507868293494      8.568860176299593     10.284489092689300
H       5.310493354373455      2.242670563468553     11.330451997913681
H       1.903865561433106      2.133294698436041      9.671120054451839
H       3.552076456764132      7.800685155315197     12.595271798998128
H       5.210840160323889      7.939442056213283     12.014516798169772
H       3.981473096285103      7.132979354441547     11.027007953311731
H       4.282628042708224      7.379293038241689      9.106154640060460
H       2.959039441367922      8.406014566279847      8.578008487915318
H       6.367005246857724      8.473605211766179     10.246349708635263
H       4.435922726920323      1.162697921828985      6.024583962290555
H       1.780163278629753      9.324832380551300     11.867469076977860
H       3.071583731967849      2.714978233645499      7.957830211459018
C       4.294945489115136      7.500359632953271      4.884614848352210
C       4.159742072400255      7.979318803183035     11.698661099386200
C       3.909316687780652      7.341935484549857      6.349040248837089
C       4.617060179100660      8.373397073472976      7.235573769989278
C       4.055728480236308      8.360176191457937      8.662665137770434
C       4.134954410888944      2.643761306428731      8.222680929686019
C       6.005914964629264      1.213048886982331      9.029161702021227
C       3.883398131376321      2.922345028367387     15.048886421896205
C       4.321755895336652      3.198552481097749     13.620889422694528
C       3.664418011282828      2.181096163620582     12.684785740689719
C       4.212247220408915      2.257212028002799     11.257882421424277
C       2.230152015322730      1.194734806262433     10.135394177992522
C       3.759140209020204      1.128489995234332     10.292077699907333
C       4.478691444314543      1.287631319715153      8.869233549533687
N       4.630732314212704      3.749232169635220     16.041925229794149
N       3.467401190361551      6.609799996838129      4.011792303225236
