16

H       4.583493013676699      2.738483474694827     22.030594681399169
H      11.327220292514285      2.228020228594847     21.001960234452326
H      10.997238947309441      2.305495500501027     22.624966590647730
H       4.935829449565737      2.647298041922668     20.278477983835110
H      11.973379112628237      1.078996467073102     22.037615948230393
H       3.885111141688363      3.951827147171551     20.915587054809446
C       4.192868149509262      2.912759274175298     21.028657798766758
N      11.730533443886646      2.080283316687659     21.937735534696660
H       6.671542109732795     -1.319481102833311     21.390930332640313
H       8.211327674338424      5.448508577216377     20.707840318581418
H       8.029899533512598      5.915828712093295     22.424573289650578
H       8.024025719077175     -0.843749137999541     20.525554517584840
H       7.862489939043467     -0.389716195135068     22.105716654136295
H       9.459276914260146      6.459486183856474     21.503130136973361
C       8.395761789173861      6.225594060440250     21.446731301161666
N       7.693725094580054     -1.164764526225232     21.448007555132317
