32

H       3.769929700201924     -1.515322926505942     19.340492095838634
H       2.374892518798937      4.869940391645295     19.275137045464806
H       2.425494937959250     -0.756216224596422     18.655574623098111
H       2.444678204520587     -1.051373721881873     20.288739933439622
H       0.915018523473302      5.677580302869877     18.608693953485098
H       2.264860326245001      5.219523842699451     17.520585577272364
C       2.000852546149030      5.568810884769598     18.522860942048712
N       2.730814447787465     -1.441058257631192     19.369334441120227
H      -1.094963138528509      3.000916687693990     26.577441251545135
H      -1.457437883685521      2.469352682925846     23.667378064640769
H       0.115080919908798      3.086713735526337     25.420658144048396
H       5.297764207400728      2.317756643773115     24.428291784913188
H      -1.146783144513285      4.188507410245739     25.393475769279902
H      -1.412906122943439      1.228092037536914     24.963405861412909
C       6.364774253543791      2.167742194598392     24.239081186836660
N      -0.910795306453324      3.189634372459793     25.576045205250384
H       2.647258082885021     -0.331601633456238     24.768323602061706
H       1.331133835241378     -1.532176519432004     24.930901481969737
H       4.246046614168556     -2.095667945188808     25.345574254043612
H       2.912977501052475      5.116936279773380     24.868415588428373
H       3.091691159008015     -1.920111574007680     26.545652277769236
H       2.555227261090131     -1.709871040465038     23.623764976124175
C       2.378950220061899     -1.385544535905566     24.651330281393765
N       3.134983974732049      6.132633949329194     24.942298561398388
H       6.264974252851864      1.846237516275262     17.144958403622464
H      -0.248363105321944      2.269435457216831     18.472479098360534
H       6.485909315466957      0.411227216273910     19.101409827128183
H       6.685286682808799      1.750510602257540     20.089226242732305
H       5.216779690370587      1.486481772020823     19.311678891777539
H       6.403211808067129      3.275044267658392     18.228047153307774
C       6.716674297624856      2.239774813112712     18.059420236088975
N       6.252645893201580      1.414948177132189     19.208803658031545
