64

H       0.783406725827791      4.145793789960023      9.719106757949657
H       1.442254576867962      4.105835374301647      2.614924853305534
H       7.778689990869429      4.070783260895734      2.659738821678022
H       0.650126801397554      5.325383648027247      1.827850979290690
H       2.721028266653650      4.269305343654717      6.474961509552458
H       2.595237680467065      5.911205998520559      7.101337475410063
H       2.559962969405849      5.620909699331087      5.370166556714155
H       8.463998312820610      7.086541958863107      7.812836360768517
H       6.970132790363479      6.470316180390712      7.092609622743439
H       0.680785186589825      2.363708275591719      5.759919443848723
H       8.236959775455926      7.213782777265488      6.082457809231299
H       2.150185727045046      4.533489962953199      8.803042475978797
H       0.999802695104393      5.676952686802438      9.119036760822647
H       7.308449049182071      4.389467390591962      8.274344294388980
H       6.244847549132999      3.729685686442635      4.643141947345242
H       6.351958400990010      3.581353357394206      6.401967541766131
H       6.058046642249834      5.152636362004774      5.662031204200818
H       0.385777082045730      2.480775320834460      4.045690598529845
H       1.893229275186560      3.134013251144144      4.715250678413333
H       0.622280242527556      3.186954485236881      7.533096767782983
H       7.526807795931055      6.098833456948069      4.120800437679339
H       1.262809825521536      5.927464681533922      4.019719586844952
C       8.370453916891543      4.322371197190251      8.004505964971377
C       0.689690028777261      5.094999331278676      6.415924107168014
C       2.214828469808950      5.230275728861820      6.330946325611361
C       0.817658565668459      3.025560988510438      4.896427539011840
C       0.354942952369361      5.326571451419379      3.908907059308027
C       6.617083390696095      4.218676800232711      5.554951991854494
C       8.052947264576160      6.556173703869810      6.941505202391578
C       8.128998000029142      4.456407076659547      5.460163184817844
N       1.125377927273552      4.679146826531048      8.886675936140206
N       0.537961363460507      4.626918814682305      2.597446658022381
H       5.299276788225261      0.852280698348904      3.672352721400405
H       2.597029770960603      8.947935908379506      3.061870082781074
H       6.861104439994667      8.953436456307481      6.354279854222281
H       2.257068330182049      7.898253699578648      4.827611719681483
H       3.537942248205908      0.892569790990755      1.979359436151666
H       4.083783836272419      8.332921879764561      2.495680486095729
H       3.824875021429428      1.741385844783789      4.108753408275975
H       5.936750943065396      7.653296020597168      4.871829699256602
H       4.429139568255824      6.961837552305230      4.249990873780325
H       4.786476257478089      6.817507754722511      5.954677469074433
H       1.998172906768823      0.493513306829954      5.463009026031422
H       2.495175407841196      8.054570134078208      6.556220345153495
H       6.266201360441102      0.545637494048864      8.767064163545873
H       5.329545658121294      8.612376178476969      9.862385611121528
H       4.781144221152061      1.163736682162970      9.322472564625910
H       5.042739198105171      7.727995404693583      7.739805605767224
H       3.568882462813561      8.620693185129074      8.166613599014198
H       4.080450227330145      2.645660000020025      5.870224310396884
H       2.927818574197818      1.807496098614453      6.947786672823082
H       4.432937165820388      2.498369768185722      7.573945957027022
H       6.380311721196011      1.410756853849542      5.281071319075531
H       6.623008939958148      1.539472599546171      7.010389387741204
C       4.874368023140668      7.499854637844907      5.100006055032081
C       6.205112903041186      0.895295430494163      6.228447549396445
C       4.716147509809654      0.628945289758570      6.467697171105796
C       3.991191608221807      1.960710327060314      6.722532770303065
C       2.664959521993346      8.558145292519296      5.601714906727513
C       4.620404499037417      8.729541339216826      7.872680054007204
C       4.151771352293271      8.831623381607670      5.360613501877537
C       4.247094474650459      0.741767167798431      3.963643683373999
N       3.549054064135047      0.190919384100036      2.750828605409254
N       5.316200890619288      9.299164100531819      9.079366579022826
