32

H       0.655605191340660      3.063439561627044     19.494519796908431
H       2.022305015090817      4.835191413558640     20.389979217617171
H       6.864438300942017      3.657955226644117     20.294391824482592
H       0.595892869107040      3.072925293134200     21.162435521970128
H       0.645612110054640      5.473089798078111     19.438929637402527
H       0.576315215348903      5.467809191495944     21.226182271780008
C       0.938297786762615      4.944281600366621     20.343457499747121
N       0.324509548180178      3.594448572954310     20.314751023493457
H       3.226654792328121      7.649594888748086     25.849220957322601
H       4.426167971647992      1.581187548606130     26.585392383845203
H       5.908160534493967      0.600665839439744     26.768442542469437
H       4.127982965124453      0.339741538409188      0.657221502181046
H       4.578598452952006      7.825129024696793     24.888246113664632
H       4.535974256851013      6.651256883231147     26.075777831736897
C       4.821786701274473      0.600728314805364     26.853042608716681
N       4.262574203856219      7.616856885541527     25.846450933903569
H       0.623153003593415      2.782429781940299     25.708774265033043
H       6.731324120503047      3.587739686285107     26.349340205959702
H       1.845490940935395      4.812458280745997     25.976122375415237
H       0.456625171278016      5.137966899593208     25.074364537556843
H       0.527374552215255      5.582321576562784     26.670976278139349
H       0.176131002199038      3.332928997726417      0.211774009591821
C       7.819230763401982      3.530169158287273     26.407432619631340
N       0.811876893686121      4.852857574700861     26.002743227299238
H       2.791773658424752      0.810788050454739     20.393682241576748
H       4.254101511193423      7.034413340981107     19.774880192764581
H       4.102608832620274      1.530585091532308     21.375845788466741
H       5.526646851019712      7.719614533831884     20.620921582855807
H       4.158467781923868      7.154621727539886     21.434061305644423
H       4.266334321470646      1.428848364410051     19.597792887233087
C       3.869053261437919      0.946721280816734     20.488924215945222
N       4.496032010140434      7.628571798452954     20.579209266060797
