70

H       1.378198965880729      8.289788216835968     11.933356132664658
H       7.476803439669972      5.851250277997306      5.703542019598065
H       0.815761254622262      4.107765426341039      3.966959769166021
H       3.249904247953995      6.029435972187873      9.419009490464628
H       7.777418983061418      2.932681616937326      5.214165236062819
H       2.310642171074423      6.908279081044125      8.197983329869714
H       2.949247360275398      5.289621673102554      7.851950500824636
H       1.766142360353266      3.235497707156096      8.896843148679658
H       8.126780784248522      3.644667078225583     10.549023005447918
H       2.186191762754812      3.900175534232607     10.473991664399529
H       6.822054530179179      5.115169573806047      8.814309721187957
H       8.236032096920590      7.402507187776483     10.320273174406662
H       8.787403399851939      5.381321863409848     12.554148803073392
H       2.490953848510316      6.109953924617063     11.366755533685483
H       6.251659843207821      4.712900172612273      6.287633922321424
H       7.725926342004623      7.527640516645823     13.223924198373505
H       2.079687780956213      8.242574195233555     14.101547866046438
H       1.638002256077632      6.631981563449355     14.350070849370514
H       2.985802512358074      7.016307586112377     13.423974390943748
H       6.826344146594197      3.910849717629053      4.246190762014276
H       7.673511546999546      6.457101809154397      8.051337269463970
H       7.198790864653508      6.103154260885513     10.890469508377693
H       1.618301972194358      4.510929209544937      6.537850374434854
H       8.062864069584954      3.465353278076758      7.528580958024648
C       8.185643037082826      4.522667027208866      7.255559679834350
C       7.312109858652879      4.830418728650927      6.061697464851708
C       2.503902928599408      5.918540616414774      8.625900251832967
C       1.194218205797444      5.319477185348569      9.145766503196215
C       7.800629293658264      5.431342557717086      8.424585076553246
C       8.247193286381634      6.367591885823791     10.693654651126463
C       1.412807486070402      6.153780371599366     11.567491457986222
C       8.766793829253743      7.498171397008781     12.887003231430114
C       1.428779308976389      3.910134990055086      9.685762110424179
N       7.606019677819578      3.917328967287384      4.917554816324284
N       2.014898305254403      7.306560402462019     13.665178445740953
H       5.708209976978212      7.461681326738372      6.015256733300178
H       2.749061882886468      7.644831362406838      5.698560494156672
H       3.144968281747591      1.755965120702073     10.277948144759195
H       4.638375146414958      1.004266125728531      0.579328628689566
H       3.909010010621846      8.131438105379823      4.635044786607725
H       3.715537678283425      6.494253427415519      4.930251868653648
H       4.592062168231142      6.519346578680024      7.017514055124622
H       4.676397322756134      1.779891536584602      5.921990134107474
H       3.443343506042684      8.705374595425040      7.643208279953772
H       5.372647634498454      7.539614676472862      9.025623441375503
H       6.401803099557536      8.816978062815370      8.390247316946235
H       4.571309093663936      3.087175873252844     13.543814846650779
H       5.697404151885899      4.276317401933645     13.334978666702236
H       4.494092457467994      2.826569589851526     11.230904838158258
H       7.281439582718934      2.564283616884925     12.454672238190541
H       6.025386779138384      9.175659930499275     13.578311819077783
H       5.890519677071253      3.790118914185837     10.789580331653566
H       6.874242041591990      1.997841013417203      9.525829513305826
H       6.040649939560291      8.556335494825518     11.329182675684169
H       4.301042624744834      3.803912031038314      9.109599980802704
H       5.508664692219617      3.484677642931599      7.854036334768343
H       3.809707873387377      3.121582123411699      7.560111270310096
H       2.797269781065894      8.824257758007978      9.631258212854096
H       3.790333003805131      7.931161922244115     10.801988975985632
C       4.507647014797539      8.654219509116007      7.379102287146106
C       5.362976457618774      8.573022382203471      8.647634795208168
C       6.196285536557181      2.421056359303641     12.417588231401494
C       5.578456852274912      2.779167449603019     11.081263084343897
C       5.901923100038353      1.761709930157532      9.981064203447888
C       4.592926904945194      3.107174551392083      8.321839820594231
C       4.715684983303168      7.459202486121035      6.473306659829148
C       4.826852081281605      1.703302461358418      8.875260357389564
C       3.588418530473379      8.922001374025294     10.381501507036447
N       5.593900887536141      3.256696352904326     13.495464232573816
N       3.710373270816197      7.435325826173134      5.366041819240220
