16

H       0.822471301983580      5.845004678775613     16.651337042043597
H       2.160960824852752      4.769892745958292     16.149432293023015
H       0.991302752048671      5.367279111031238     14.932912283285102
H       8.913114232825937      3.537828423043620     17.397352023493649
H       0.513115064711271      3.080210282814636     15.596314490352208
H       7.786338949275874      4.070802286754470     16.291741464459442
C       1.124193099624823      5.053964896684839     15.967622224704950
N       8.790980063488211      3.867480644339312     16.427410865152588
H       5.657817352059670      8.214350214057875     17.123426935186448
H       4.862986102812387      7.087319586464396     15.989827883843107
H       3.960824737978135      0.359762141171862     14.817539790359950
H       6.126592532833927      8.211656430886309     15.395852100202479
H       4.608244057628943      1.388053098524469     15.954224419423330
H       3.420209063587061      0.287492863715157     16.380144376871790
C       5.308127003041740      8.075496036001276     16.101317311224861
N       4.261652061510986      0.424628001637705     15.800679564843264
