36

H       6.409791513300251      0.478575499707267     10.166113695014278
H       6.275190876863229      1.727940532437202      7.832455959065654
H       2.754805159181740      6.986011527429342      7.058318741867567
H       5.504284211699591      1.237252166373074      5.512324124674183
H       2.627756337184478      8.222843807197659      4.724363654999047
H       4.135551687556643      8.678835001135448      4.104765731737880
H       5.177032047033109      1.604834929475294     10.273764210064284
H       3.527966196663404      7.472546763672509      9.377123904503689
H       4.906384806460013      0.027739520789772     10.783559332299946
H       3.859939356209555      7.097924788294277      4.624225343947748
C       4.936231086610374      0.282212282970865      8.707685097758359
C       5.505689259302269      0.983274552860745      7.653068805347827
C       4.097880183044214      8.426801741321704      6.181557663068195
C       3.525818507107731      7.728332985304558      7.237517485304434
C       3.957510126158787      7.998672133040465      8.530311196176481
C       5.075577160584590      0.711625424667637      6.360100749349044
N       3.661867368387674      8.102640595340366      4.826511574564376
N       5.376663035496160      0.602170197891076     10.062045296422644
H       2.083141544736271      3.876037984955268     10.112278086362855
H       1.966470549808518      2.631381884617448      7.773070116207868
H       7.720634365100231      5.544329853211879      9.518129977593098
H       6.952132377171621      6.031813230737202      7.197024013931319
H       6.833347581313605      4.806336143885892      4.863154467527067
H       8.337032848982066      4.346209882580339      4.244939245307552
H       8.075447601803610      5.925173352366729      4.763861008208077
H       1.197370736276486      3.117580650793325      5.453267393014207
H       0.860042820982956      2.738553038054843     10.207077709165045
H       0.571675234541397      4.317606241742832     10.724319695001316
C       1.192759700346601      3.370894703296938      7.593339877216602
C       0.615325968755518      4.065865006396660      8.648383582965925
C       7.724979846353319      5.291353402338992      7.377626972366570
C       8.153829712480066      5.021106076813696      8.671314457176171
C       0.762913305870456      3.640647240991208      6.299382191838536
C       8.301794089291137      4.596113568205989      6.322668231093166
N       7.867825866295283      4.922051123902532      4.967505361768819
N       1.051144602695393      3.745237552246941     10.005113592965829
