48

H       3.517271965142847      6.807417978444815      9.981674286413542
H       3.328351079640100      6.442986155210035      7.601038219759070
H       5.289470628198010      1.761380301297853      6.968272023458721
H       3.656988985509572      0.188613920356481     10.678754451771976
H       2.196157672452220      7.835011974372921     10.020409572560348
H       3.221296760350424      1.240150560449361      8.522645132446252
H       6.692944061806607      0.679547614079582      7.062738624374597
H       1.919813255525314      7.519036009352497      7.509717095098916
H       3.063333286857948      7.334211024113275      5.302512541915485
H       3.090082571931123      0.863317425407295      5.910147307864634
H       5.118163505876046      1.389138005915153      4.586645202152266
H       4.933731489083507      8.008309090383531      3.896833550040882
H       6.409881071366685      0.331580652968972      4.537015507449159
H       5.525620787475159      7.343785152474693      8.664391821076743
H       5.386187113070691      6.959620653743349      6.059530697884488
H       5.547902389319805      0.874024438220108      9.268206242238596
C       3.013917935106044      7.487287907689884      7.456589497407259
C       3.478769184195154      7.972663139716062      6.089673836967152
C       4.996916692498782      7.986375867350440      6.011072972307978
C       5.598639553673527      0.716180728302436      7.114983238386492
C       5.133450555831506      0.232235466897630      8.483534718584684
C       3.614589023346376      0.214444929333898      8.563786288050567
N       5.381769398337226      0.390511869622710      4.674650998214545
N       3.227128500786501      7.798149378321855      9.895456785184447
H       0.704218070706244      2.662918707321781      4.652708474935756
H       2.340677997452970      3.409019754883951      7.092045210905562
H       1.249636689185723      3.227263059631153      9.326235147319091
H       1.165124867435418      4.875783549444362      8.706905201317870
H       0.970556925798407      5.229838715921611      6.109037419998373
H       0.948103746913818      2.307735737289792      7.039375170095953
H       0.513401174143378      4.170885590394047      3.964707676706569
H       2.006917587434344      3.715385172421453      4.589916295501924
H       8.149132402704028      5.381593875351030      9.876452492620272
H       7.610076012907875      4.829270394920863      5.205600561249227
H       6.855097810391511      4.329518294001645      9.946881699983724
H       7.687671258926001      3.174787083666796      5.811623833558758
H       8.354908941204823      3.871996913835589     10.562797248444284
H       7.890192183793857      2.812663737145105      8.419592608270701
H       7.900065768264904      5.735968408159666      7.490206327862502
H       6.514159861712193      4.632548584683683      7.434693013430312
C       8.050737776097595      4.199144189159814      5.985379454074355
C       0.595177140464373      4.197173413816126      6.077313002136368
C       0.805476526588756      3.848744252771211      8.541243117401168
C       7.605800626078840      4.684847907148103      7.358988240009507
C       8.261272032981763      3.846783790966199      8.450749487988290
C       1.248701799747061      3.358086105563186      7.169448663255525
N       0.979242356883730      3.658777924338887      4.733474310084357
N       7.881855302645230      4.382376705634327      9.798227675927210
