16

H       0.168757013855877      5.559450019652947     15.845531650807546
H       0.506394843663291      4.118013168108885     14.847723099944032
H       8.324278413209299      4.149640173975668     -0.177952764492916
H       7.218118678461891      4.118639222544449     15.548287817096702
H       8.092251011520878      2.825266530218062     16.136488614752757
H       1.113555051390427      4.201195225454715     16.531127021538822
C       0.304955856981751      4.478272452611685     15.856355469766342
N       8.019230602979746      3.858712178838214     16.142422167126483
H       4.226781382343471      7.950313844553361     17.013333581557596
H       3.941666786552658      6.928947541374627     15.570738638567343
H       3.356161744993365      1.717935869270143     15.719868810277204
H       2.190784684413178      0.515298655652589     15.870090270689678
H       3.015221584358227      0.684036836147391     14.448960412173909
H       5.129701697065807      0.124877074221703     15.513263719819863
C       4.191370585914242      7.928022432243464     15.925715916935461
N       3.117304886392388      0.738510818734085     15.471877820442106
