52

C       7.311460920520167      0.572907950232292      9.491300520951460
C       7.659511964613283     11.630167089235961     10.810460732533446
C       4.967554603212823      0.012450675447354      4.997173963840419
C       5.258002430602033     11.128646163361141      6.352358807573717
C       6.127702951781117      0.339534981013979      7.256395555936290
C       6.431913844375481     11.377723362642627      8.583988038692015
N       6.404415696811744     11.467300995263201     11.621947913500630
N       6.260073172519886      0.125254168658998      4.235971287475158
H       5.696308025483079      1.348505081117918      7.373472326885969
H       7.102212765410621      0.482419791438385      6.757893634259362
H       6.891966093325443      1.584288499153623      9.619186002897504
H       5.764262046757415     10.751325800739297     11.213106959377910
H       8.271722981694150      0.624276545884107     11.437313789164428
H       5.458714205498041     11.240293585907093      9.085361997377884
H       6.854515583225416     10.365261045169957      8.462665367308331
H       8.121128946126595     10.634975201644480     10.741815295267477
H       6.087641949269849      0.377458145032862      3.248224388527224
H       5.836923651971374      0.708177012025178     11.743753954060677
H       6.856118358199030     10.892044293772493      4.232836851691493
H       4.515472874185988      1.014609281692640      5.002730116764277
H       6.863204166544430      0.891918788886406      4.609175938604021
H       6.624657758147343     11.129324460740008     12.574147919857813
H       4.272266107060956     11.032021308110375      6.833805916835919
H       4.369778049249635     10.999691262052236      4.373658885277640
H       5.663298024896744     10.105746907778125      6.280284563734914
H       8.281951533018235      0.705368050921548      8.987174353557526
C      11.153263386726595      5.327627567834907      6.604073796944935
C      12.076900884456943      6.192631179418502      7.462430091554636
C       1.710304589770465      5.777080626927849     10.604425791931467
C       1.416189420854962      6.373936311975050      9.239585083888826
C      10.916752060330058      5.865546487183552      5.203208482656224
C       0.482706659044260      5.524636901167431      8.377953105414038
N       0.364802503154063      5.926282790436953      3.984255881450049
N      12.299677480431008      5.666282053758213     11.873662936284759
H      11.659523344807404      4.950306868753696     11.464821963348610
H      11.786121109466166      6.561272905340229     11.949788472556719
H       2.376452015839076      6.425305084781601     11.185598372015335
H      10.265039714424120      5.198672320026653      4.625373903484265
H      10.167527415337286      5.231002026553442      7.085520922634782
H       2.386680745423461      6.506396718795374      8.735458942772196
H      11.645505839929955      7.201601325618394      7.579506857744092
H       1.206941623075139      6.283448585945255      6.506178209239050
H       0.905308289621907      4.512174221948597      8.256630431326698
H      11.353975515338607      5.439274642319483      9.337077001852016
H       0.996694771758729      7.385316954910238      9.367470572335673
H       2.171921300425249      4.781889076107891     10.535780342812519
H      11.558559324510965      4.304728313761846      6.531999566380883
H       0.675450466215940      5.276237998796205     12.368112982460087
H       0.192370804345434      6.178486380142409      2.996508965699575
H       0.906911314947341      5.038957821268034      4.026801923952190
H       0.967932585963534      6.692947581466943      4.357460496646957
H      10.464670333298862      6.867705524631174      5.208764633889905
