32

H      -0.266795317549592      3.616450212379614     19.807574451246143
H      -0.090798179984573      5.967674936282256     18.003293797476694
H      -0.072383742700183      6.011987807735730     19.666189016092076
H       8.264518372903140      3.551611604222657     17.912084073332203
H       1.195421857260199      5.290614119118922     18.837290439847273
H       6.909685440991217      4.334086699228172     18.785520288527966
C       7.981341411367137      4.134177127159428     18.787509586839910
N       0.170697658265419      5.436466753559693     18.845808063133198
H       4.007789795623603      1.095758577850038     19.752171169977725
H       4.191342961945544      7.699496740340765     18.013516377714211
H       4.210834941761826      7.696856438559442     19.676485415273209
H       2.647972545052276      0.345104506529284     18.863193943648568
H       3.992704167965266      1.115085981777307     17.962262108198619
H       5.474527699914447      8.405225607630099     18.829521751894301
C       3.718153278197025      0.552357358744686     18.853424845558063
N       4.450599372875247      8.253329149990675     18.841670808609663
H       3.905510341467190      8.058080579799716     24.273874711080992
H       3.792917725279452      1.561469829862606     25.861567115625725
H       3.770824927668093      1.462453429368223     24.202248628440767
H       3.929907285631696      8.146518631674835     26.060896954986298
H       2.492096471468670      0.836649767400691     25.092607056468019
H       5.291007732689905      8.822488811139465     25.111507705797560
C       4.215238063397389      8.647069638472583     25.136261610304583
N       3.518683383496239      0.964037989178336     25.069935508868902
H       8.027979520841187      3.084197785430334     25.769256566317441
H       8.073917386272836      5.643431390317179     24.265545692025693
H       8.055088763932810      3.236772005897465     24.112248224431504
H       0.941431159902060      4.910367894161276     25.205998417556778
H       8.436969564711189      5.476365522772596     -0.081564644057449
H       6.726259964094597      3.781336414107320     24.983485147901007
C      -0.141508526138620      5.037229982969642     25.217242145619473
N       7.756603810508721      3.695830834788403     24.987579042298066
