72

H       0.945609617169825      3.395663033598216     12.998725110485728
H       6.741306460236179      4.926552738113793      6.129534666879791
H       6.250185559202118      5.420415998360795     10.698688152129145
H       6.824276094498991      4.021090239562880      3.791669531323030
H       0.340922818338126      2.987732684730894      4.161431263729363
H       0.081685886816149      4.188248791178621      3.021187789363255
H       0.418138151808982      5.900126201755731      4.738530583750903
H       7.037406594913667      3.207452475557457      5.947795899017719
H       1.554571350056202      5.236307553554159      6.801970038368958
H       1.669898316913762      3.562597768724373      6.287202396436420
H       1.123484336644424      2.369259737773908      8.382815644646074
H       1.866386202124410      4.973733078354591      4.304878411033306
H       1.260930507531934      2.208388197151069     10.833770472055273
H       6.113425718893449      5.592393667183686      8.244152855640248
H       5.943444624636485      2.164457959191572     16.062775786683417
H       4.840083656650206      2.261929907678113     14.826319364818744
H       0.012194066293017      2.707014318691069     15.186266536776932
H       5.999705514202935      1.041865301261735     14.824318291638285
H       6.573200703665057      3.959808673323492     14.658236220471423
H       5.671153670865216      3.105674901090480     12.493427963088813
H       6.833048851695446      1.772454776138023     12.515749176119694
H      -0.174140523431292      4.758474342118547     13.107481421325261
C       6.675642093090950      2.813828480073966     12.828583454242098
C       0.610050453443900      2.955286688267495     10.381512713393651
C       0.535924811334479      3.050501905774361      8.995131504176078
C       0.895386931862331      4.918093390218105      4.804679333064390
C       1.030972111405279      4.453147045670028      6.244002286604756
C      -0.272746413018960      4.015927307623328      8.385929115205753
C       6.755602694083436      4.837571315719246      8.694425092791342
C       6.829043779344375      4.739190910796570     10.079281139945278
C      -0.126397987148146      3.820452322785381     11.197661801356123
C      -0.044123312867191      3.750537921168572     12.693764433681082
C      -0.328207349105210      4.159024367891663      6.891602554875713
C       6.784379765568483      2.937137342876565     14.336239952704762
N       0.043110099366293      3.971918952226753      4.025723596273844
N       5.832310727648610      2.044245898359700     15.048839488787333
H       3.306477955165868      1.751344091203825      6.655766153111198
H       4.998502775616577      1.972595594359025      7.125264713259160
H       3.760828981479325      7.160556157560992      5.474452408752153
H       5.424958687233535      7.312749093969109      5.993320819125414
H       5.224893322968480     -0.205992120968735      3.984726472447002
H       5.916310958104710      1.261881257459152      4.685628170035602
H       2.772648266731757      0.162761074781742     12.934995020211231
H       0.699389633573518     -0.587892303015855     15.081346825432068
H       1.864884170344272     -0.763544257359514     16.245018597750754
H       2.080417936003066      5.329708414038810     14.042701437039584
H       2.015904676742501      0.482137417062282     15.129213067548084
H       5.355721170538538     -0.065486677913297     11.364056834322737
H       1.350114824951441      6.877460454628055     12.165676694969623
H       2.770398000208008      5.083657748847536     11.332941215119297
H       4.218689483554451      5.837734999324873     12.016231120991957
H       5.732662724400567      1.239511288909980      9.292421071898501
H       1.640281044763664      6.178071058947141      9.335898075176722
H       2.022487770749613     -0.222539593009265      7.712491924718954
H       4.015396307756443      2.450186773127244      4.280420333784607
H       2.991860914017798      1.103233802014783      4.230599256311881
H       4.064399397216832      1.426729000948170      2.992138171015523
H       3.509568252652664      6.351698425401456     14.288652161767049
C       4.836794371370208      0.628827542709988      9.394028188672843
C       3.912019253452206      0.581197528023990      8.349244851499925
C       4.200346424713871      1.226800018625517      7.021437646544280
C       4.608190880267600      0.139313061883935      6.018063143127113
C       5.021340113900561      0.636501033908743      4.650866472864473
C       2.760609464905390     -0.196116803090022      8.513409472980602
C       2.532307764956089      6.795121120046303      9.234973040385814
C       3.252567916774386      6.047016730683022     11.540159028749937
C       3.475858667338216      6.814251391669147     10.266200532327717
C       4.627194933264288     -0.109990497602112     10.555763944445561
C       2.393844946575229      6.864978272934173     12.510695180929382
C       2.475366679069703      6.342948320678869     13.931066517306173
N       3.943655260071091      1.451058064129739      4.011727911692701
N       1.719284687709090     -0.504306975069839     15.262038157153569
