16

H       1.166746353658384      4.157820313021419     -0.290627710366865
H       5.412792579530490      2.259236844774057     19.325649278104358
H       6.377444927188439      1.160821397018919     20.350729715599009
H       5.369543586536111      2.430412111694881     21.106261578319003
H      -0.039830290987286      2.914620242756293     19.898482035752039
H      -0.938532293583949      4.127471886310578     20.605927055819297
C       5.982804261852321      2.171221747065131     20.247199989125249
N      -0.648161873782279      3.140291803706615     20.695077101000571
H       4.281103502186822     -0.570212664955776     20.797721852851314
H       1.401770660849098     -1.016283144646337     20.174948516227840
H       2.645554015830048     -0.927431904000373     19.053608666467063
H       2.547663955315984      5.569200268652223     19.744090279723377
H       3.031466920158552      0.709108496096959     20.784058864905987
H       4.193174285065844      0.497176116301390      0.144790506878339
C       3.227338204459619     -0.347783848990604     20.968553131273904
N       2.387565119253061      6.583045255488505     19.596986818264163
