52

H       8.309116733818998      2.910086852740016      7.731629892712170
H       8.326579003816194      5.307644994415728      5.807066624214895
H       7.966079107445755      3.517969453466302      4.442457084593854
H       6.396077837246675      3.792580367824765      4.975132663894985
H       7.320686596153091      2.551942708106134      5.614035571877208
H       8.624385264583992      5.223721780408234      8.781683803608047
H       6.995351021689471      4.830026515887623      6.874179478763186
H       0.877459786641634      3.276037687542997      5.900634024027072
H       1.316888005949350      5.383492115745460      7.058403781088055
H       4.327413908151915      5.093659070696631     11.441433246660170
H       9.515961589690871      3.229899122700128      9.881419380423814
H       2.186680919034868      3.221793565810676      8.113508442723518
H       2.937476790798200      6.014819496595776     11.660512550463659
H       3.305833525099987      4.750037309297618     12.699334408892090
H       1.706837864482532      3.759672402129936     11.419265243600513
H       3.226310828532676      3.251430270457808     10.659944555060905
H       3.003500168315076      5.278993970987203      9.085715908061944
H       1.453890456699375      5.621784706176050      9.845129252019760
C       9.427868405251632      4.663500711075915      8.283710218490963
C       8.833460824176754      3.739021223108334      7.235992120650507
C       7.865686488000017      4.460446316625769      6.323319849302767
C       1.444444377449030      3.870046905856944      8.598054496860005
C       2.138754483608087      4.807398391177009      9.573746951731843
C       2.570705733724713      4.107604348585169     10.844734199001195
N       7.350279135787535      3.526456768682089      5.271574483111755
N       3.327838599961657      5.059973588599187     11.716028196381073
H       3.345210338148685      1.849486289521053      4.808502544287815
H       4.936665656008254      0.969090088018230      9.503993707968329
H       7.345215431442508      6.813127788647858     11.838915213889154
H       8.697343878707642      7.797301071408869     11.645006229363251
H       7.672904520589688      8.060551226815360     12.911985058233572
H       7.487699730906313      1.001876976897373     10.942905163853423
H       6.367657702348928      1.137643193272141      8.485039270362577
H       2.979176052862627      0.591066103963853      3.766408413847250
H       1.975004366352754      0.896148347922816      5.046423258252704
H       3.161719724393011      7.676577211527975      5.743228286138003
H       4.654806879011756      8.249379950873015      4.977867593531559
H       4.836938288326342      1.469810907534994      6.626057515224489
H       3.324060600358314      1.019190597428895      7.408663654729116
H       5.811164282942309      7.211676607208314     10.052161401460090
H       5.713834895069868      7.711204699088547      7.185557312681200
H       4.281281366329768      7.547890715771463      8.203262212043985
H       6.004288865261350      0.413540967644028     11.712152615446239
H       7.324219654892133      7.659071069016305      9.266332864144132
C       3.789098295252439      8.556283555006116      5.572496002797407
C       4.197621569641893      0.612625086347056      6.879409202254148
C       4.979302241223249      8.278229538675486      7.772012869043450
C       6.454179359396871      8.066042073375394      9.801417087774212
C       5.670851570599704      0.404623778492376      8.914549497955246
C       6.868451689889521      0.115912549757028     11.110245915315591
N       2.970421348528760      0.888597795290078      4.754152870996224
N       7.697448076343210      7.782666070907209     11.919791361471255
